<NUMBER OF ZONES> 9
<TOTAL OD FLOW> 
<END OF METADATA>


Origin 	1 
    1 :      0.0;     2 :      0.0;     3 :     10.0;     4 :     20.0;

Origin 	2 
    1 :      0.0;     2 :      0.0;     3 :     30.0;     4 :     40.0;

Origin 	3 
   1 :      0.0;     2 :      0.0;     3 :       0.0;     4 :       0.0;

Origin 	4 
   1 :      0.0;     2 :      0.0;     3 :       0.0;     4 :       0.0;





