<NUMBER OF ZONES> 24											
<NUMBER OF NODES> 24											
<FIRST THRU NODE> 1											
<NUMBER OF LINKS> 76											
<END OF METADATA>											


~ 	Init node 	Term node 	Capacity 	Length 	Free Flow Time 	B	Power	Speed limit 	Toll 	Type	;
	1	2	25900.2	6	6	0.15	4	0	0	1	;
	1	3	23403.5	4	4	0.15	4	0	0	1	;
	2	1	25900.2	6	6	0.15	4	0	0	1	;
	2	6	14393.8	5	5	0.15	4	0	0	1	;
	3	1	23403.5	4	4	0.15	4	0	0	1	;
	3	4	17329.2	4	4	0.15	4	0	0	1	;
	3	12	23403.5	4	4	0.15	4	0	0	1	;
	4	3	18370.2	4	4	0.15	4	0	0	1	;
	4	5	17960.4	2	2	0.15	4	0	0	1	;
	4	11	8125.92	6	6	0.15	4	0	0	1	;
	5	4	17938.6	2	2	0.15	4	0	0	1	;
	5	6	5990.78	4	4	0.15	4	0	0	1	;
	5	9	18061.2	5	5	0.15	4	0	0	1	;
	6	2	5784.99	5	5	0.15	4	0	0	1	;
	6	5	8907.9	4	4	0.15	4	0	0	1	;
	6	8	13068.6	2	2	0.15	4	0	0	1	;
	7	8	33560.4	3	3	0.15	4	0	0	1	;
	7	18	23403.5	2	2	0.15	4	0	0	1	;
	8	6	7376.83	2	2	0.15	4	0	0	1	;
	8	7	7915.19	3	3	0.15	4	0	0	1	;
	8	9	24222.8	10	10	0.15	4	0	0	1	;
	8	16	20737.7	5	5	0.15	4	0	0	1	;
	9	5	15143.3	5	5	0.15	4	0	0	1	;
	9	8	7443.83	10	10	0.15	4	0	0	1	;
	9	10	35931.2	3	3	0.15	4	0	0	1	;
	10	9	16327.6	3	3	0.15	4	0	0	1	;
	10	11	13078.8	5	5	0.15	4	0	0	1	;
	10	15	18982.1	6	6	0.15	4	0	0	1	;
	10	16	8737.17	4	4	0.15	4	0	0	1	;
	10	17	34946.5	8	8	0.15	4	0	0	1	;
	11	4	9267.53	6	6	0.15	4	0	0	1	;
	11	10	14997.5	5	5	0.15	4	0	0	1	;
	11	12	12424.9	6	6	0.15	4	0	0	1	;
	11	14	34263.2	4	4	0.15	4	0	0	1	;
	12	3	26427.8	4	4	0.15	4	0	0	1	;
	12	11	36188.9	6	6	0.15	4	0	0	1	;
	12	13	25900.2	3	3	0.15	4	0	0	1	;
	13	12	54171.1	3	3	0.15	4	0	0	1	;
	13	24	19850.9	4	4	0.15	4	0	0	1	;
	14	11	13739.6	4	4	0.15	4	0	0	1	;
	14	15	24086.1	5	5	0.15	4	0	0	1	;
	14	23	23982.7	4	4	0.15	4	0	0	1	;
	15	10	24102.4	6	6	0.15	4	0	0	1	;
	15	14	9995.18	5	5	0.15	4	0	0	1	;
	15	19	21176.3	3	3	0.15	4	0	0	1	;
	15	22	17639	3	3	0.15	4	0	0	1	;
	16	8	6183.06	5	5	0.15	4	0	0	1	;
	16	10	7682.93	4	4	0.15	4	0	0	1	;
	16	17	15732	2	2	0.15	4	0	0	1	;
	16	18	51888.3	3	3	0.15	4	0	0	1	;
	17	10	9070.15	8	8	0.15	4	0	0	1	;
	17	16	30872.4	2	2	0.15	4	0	0	1	;
	17	19	40701.5	2	2	0.15	4	0	0	1	;
	18	7	35017.7	2	2	0.15	4	0	0	1	;
	18	16	21146.9	3	3	0.15	4	0	0	1	;
	18	20	31975.4	4	4	0.15	4	0	0	1	;
	19	15	17509.1	3	3	0.15	4	0	0	1	;
	19	17	30060.2	2	2	0.15	4	0	0	1	;
	19	20	43115.2	4	4	0.15	4	0	0	1	;
	20	18	26774.5	4	4	0.15	4	0	0	1	;
	20	19	28819.6	4	4	0.15	4	0	0	1	;
	20	21	8695.35	6	6	0.15	4	0	0	1	;
	20	22	53926.7	5	5	0.15	4	0	0	1	;
	21	20	24292	6	6	0.15	4	0	0	1	;
	21	22	15884.5	2	2	0.15	4	0	0	1	;
	21	24	16744.2	3	3	0.15	4	0	0	1	;
	22	15	12223.5	3	3	0.15	4	0	0	1	;
	22	20	18734.2	5	5	0.15	4	0	0	1	;
	22	21	13915.9	2	2	0.15	4	0	0	1	;
	22	23	63343.9	4	4	0.15	4	0	0	1	;
	23	14	16852.3	4	4	0.15	4	0	0	1	;
	23	22	20769.6	4	4	0.15	4	0	0	1	;
	23	24	70803.7	2	2	0.15	4	0	0	1	;
	24	13	51182.7	4	4	0.15	4	0	0	1	;
	24	21	34307.3	3	3	0.15	4	0	0	1	;
	24	23	21806.4	2	2	0.15	4	0	0	1	;

