<NUMBER OF ZONES> 97
<TOTAL OD FLOW> 184680
<END OF METADATA>

    Origin         1
     2 :     402.100000000000;      3 :      25.660000000000;      4 :      28.200000000000;      5 :      12.440000000000;      6 :      16.640000000000; 
     7 :      19.870000000000;      8 :      33.930000000000;      9 :      24.810000000000;     10 :      24.810000000000;     11 :      27.290000000000; 
    12 :      15.730000000000;     13 :      33.080000000000;     14 :      24.000000000000;     15 :      19.850000000000;     16 :       7.463000000000; 
    17 :      19.060000000000;     18 :       3.308000000000;     20 :       3.366000000000;     21 :      37.350000000000;     22 :      40.210000000000; 
    23 :      30.750000000000;     24 :      26.500000000000;     25 :      21.600000000000;     26 :      39.010000000000;     27 :      47.520000000000; 
    28 :      39.850000000000;     29 :      42.290000000000;     30 :      50.490000000000;     31 :      30.850000000000;     32 :      29.830000000000; 
    33 :      50.470000000000;     34 :      43.140000000000;     35 :      69.780000000000;     36 :      15.100000000000;     37 :       4.962000000000; 
    38 :      19.870000000000;     39 :      50.580000000000;     40 :      21.500000000000;     41 :       6.617000000000;     42 :      66.430000000000; 
    43 :      18.210000000000;     44 :       3.308000000000;     45 :       3.366000000000;     46 :       4.212000000000;     47 :      14.890000000000; 
    48 :       9.098000000000;     49 :       9.963000000000;     50 :       5.001000000000;     51 :      17.410000000000;     52 :       2.519000000000; 
    53 :       0.827000000000;     55 :       0.827000000000;     57 :       1.654000000000;     58 :       0.827000000000;     59 :       6.617000000000; 
    60 :       7.444000000000;     61 :      17.370000000000;     62 :      13.230000000000;     63 :      15.710000000000;     66 :      13.330000000000; 
    67 :       1.654000000000;     68 :       4.135000000000;     69 :       9.925000000000;     70 :      10.750000000000;     71 :       7.444000000000; 
    72 :     216.200000000000;     73 :      24.020000000000;     74 :      21.500000000000;     75 :      12.410000000000;     76 :      10.000000000000; 
    77 :       1.673000000000;     78 :       3.308000000000;     79 :       6.655000000000;     82 :      49.620000000000;     83 :       5.789000000000; 
    84 :       1.654000000000;     85 :       8.271000000000;     86 :       2.481000000000;     87 :       0.827000000000;     88 :       9.098000000000; 
    89 :       2.481000000000;     90 :       9.098000000000;     91 :       4.962000000000;     92 :       4.135000000000;     93 :      15.710000000000; 
    95 :       1.654000000000;     96 :       1.654000000000;    100 :       7.444000000000;    101 :      20.730000000000;    102 :      40.640000000000; 
   103 :       0.827000000000;    104 :       5.789000000000;    105 :      26.490000000000;    106 :       2.481000000000;    107 :       2.481000000000; 
    Origin         2
     4 :       1.654000000000;     17 :       0.846000000000;     72 :       2.538000000000; 
    Origin         3
     1 :      13.270000000000;      2 :      20.680000000000;      4 :       8.271000000000;      5 :       3.308000000000;      6 :       8.328000000000; 
     7 :       6.655000000000;      8 :      16.580000000000;      9 :       9.925000000000;     10 :      12.410000000000;     11 :       4.135000000000; 
    12 :       9.925000000000;     13 :      11.580000000000;     14 :      10.870000000000;     15 :       1.654000000000;     16 :       4.962000000000; 
    17 :       6.655000000000;     20 :      10.980000000000;     21 :      24.250000000000;     22 :      47.330000000000;     23 :      11.600000000000; 
    24 :       9.925000000000;     25 :       5.809000000000;     26 :       5.001000000000;     27 :       6.617000000000;     28 :       7.577000000000; 
    29 :       9.155000000000;     30 :       7.444000000000;     31 :      28.580000000000;     32 :       9.155000000000;     33 :      35.830000000000; 
    34 :      16.540000000000;     35 :      34.930000000000;     36 :       7.596000000000;     37 :       2.481000000000;     38 :       4.135000000000; 
    39 :       6.674000000000;     40 :       4.962000000000;     41 :       5.789000000000;     42 :      35.680000000000;     43 :      23.980000000000; 
    44 :       2.481000000000;     48 :       6.617000000000;     49 :       3.308000000000;     50 :       6.617000000000;     51 :       8.271000000000; 
    60 :       4.962000000000;     61 :       1.654000000000;     62 :       1.654000000000;     66 :      10.810000000000;     68 :       4.135000000000; 
    69 :       3.308000000000;     72 :      28.120000000000;     73 :      25.980000000000;     74 :       0.827000000000;     76 :       4.962000000000; 
    78 :       3.308000000000;     82 :      13.230000000000;     83 :       1.654000000000;     84 :       0.827000000000;     85 :       2.481000000000; 
    86 :       3.308000000000;     88 :       7.444000000000;     89 :       4.962000000000;     90 :       7.463000000000;     91 :       2.481000000000; 
    93 :       1.654000000000;     95 :       0.827000000000;    100 :       2.481000000000;    101 :       9.944000000000;    102 :      19.080000000000; 
   103 :       0.827000000000;    104 :       0.827000000000;    105 :       4.135000000000;    106 :       4.962000000000;    107 :       1.654000000000; 
    Origin         4
     1 :      54.620000000000;      2 :      75.260000000000;      3 :      20.870000000000;      5 :      38.200000000000;      6 :      43.410000000000; 
     7 :      32.350000000000;      8 :      28.160000000000;      9 :      79.460000000000;     10 :      36.450000000000;     11 :      52.950000000000; 
    12 :      21.500000000000;     13 :      64.550000000000;     14 :      52.220000000000;     15 :      27.310000000000;     16 :      29.060000000000; 
    17 :      25.700000000000;     18 :       3.308000000000;     19 :       4.962000000000;     20 :       4.193000000000;     21 :      61.810000000000; 
    22 :      84.450000000000;     23 :      30.750000000000;     24 :      14.060000000000;     25 :      26.640000000000;     26 :      43.080000000000; 
    27 :      46.430000000000;     28 :      21.660000000000;     29 :      77.200000000000;     30 :      34.040000000000;     31 :      36.620000000000; 
    32 :      69.090000000000;     33 :     132.700000000000;     34 :      73.760000000000;     35 :      88.900000000000;     36 :      29.060000000000; 
    37 :       4.962000000000;     38 :      19.870000000000;     39 :      43.030000000000;     40 :      34.760000000000;     41 :      33.140000000000; 
    42 :     115.600000000000;     43 :      62.950000000000;     44 :       0.827000000000;     45 :       1.654000000000;     46 :       4.135000000000; 
    47 :       4.962000000000;     48 :      11.660000000000;     49 :      17.370000000000;     50 :      19.020000000000;     51 :      20.710000000000; 
    53 :       4.135000000000;     54 :       2.481000000000;     55 :       2.481000000000;     56 :       4.135000000000;     58 :       8.271000000000; 
    59 :       5.789000000000;     60 :      12.410000000000;     61 :       7.444000000000;     62 :       7.501000000000;     63 :       9.925000000000; 
    64 :       0.827000000000;     66 :      13.330000000000;     67 :       0.827000000000;     68 :      19.980000000000;     69 :      19.020000000000; 
    70 :      16.540000000000;     71 :       1.654000000000;     72 :     150.600000000000;     73 :      45.600000000000;     74 :      23.980000000000; 
    75 :      19.040000000000;     76 :      14.890000000000;     77 :       1.654000000000;     78 :       5.789000000000;     79 :       3.308000000000; 
    82 :      36.390000000000;     83 :       5.789000000000;     85 :       7.444000000000;     86 :       6.617000000000;     87 :       0.827000000000; 
    88 :      17.370000000000;     89 :       4.962000000000;     90 :      24.810000000000;     91 :      13.230000000000;     92 :      13.290000000000; 
    93 :      11.580000000000;     95 :       4.962000000000;     96 :       5.789000000000;     97 :       0.827000000000;    100 :      14.890000000000; 
   101 :      50.450000000000;    102 :      70.400000000000;    103 :       3.327000000000;    104 :       1.654000000000;    105 :      23.160000000000; 
   106 :       7.444000000000;    107 :       1.654000000000; 
    Origin         5
     1 :      49.680000000000;      2 :      85.190000000000;      3 :       9.982000000000;      4 :      43.220000000000;      6 :      23.270000000000; 
     7 :      26.680000000000;      8 :      20.680000000000;      9 :      47.160000000000;     10 :      15.710000000000;     11 :      21.500000000000; 
    12 :      21.520000000000;     13 :      30.640000000000;     14 :      38.890000000000;     15 :      25.680000000000;     16 :      21.540000000000; 
    17 :      10.770000000000;     18 :       2.481000000000;     20 :       0.827000000000;     21 :      26.560000000000;     22 :      21.680000000000; 
    23 :      14.930000000000;     24 :      15.710000000000;     25 :      13.230000000000;     26 :      15.710000000000;     27 :      25.640000000000; 
    28 :      19.950000000000;     29 :      64.530000000000;     30 :      26.520000000000;     31 :      26.640000000000;     32 :      26.500000000000; 
    33 :      54.620000000000;     34 :      44.870000000000;     35 :      58.820000000000;     36 :      13.350000000000;     37 :       5.789000000000; 
    38 :      10.750000000000;     39 :      20.710000000000;     40 :      19.020000000000;     41 :      12.410000000000;     42 :      56.320000000000; 
    43 :      15.710000000000;     44 :       0.827000000000;     45 :       3.308000000000;     46 :       0.827000000000;     47 :       1.654000000000; 
    48 :       1.692000000000;     49 :      12.410000000000;     50 :       4.962000000000;     51 :       9.925000000000;     52 :       1.654000000000; 
    53 :       1.654000000000;     55 :       0.827000000000;     56 :       1.654000000000;     57 :       1.654000000000;     58 :       7.444000000000; 
    59 :       6.617000000000;     60 :       5.789000000000;     61 :       4.135000000000;     62 :       4.962000000000;     63 :      22.330000000000; 
    64 :       0.827000000000;     66 :      15.040000000000;     68 :       7.444000000000;     69 :      19.020000000000;     70 :      20.680000000000; 
    71 :       7.444000000000;     72 :     108.400000000000;     73 :      19.020000000000;     74 :       9.925000000000;     75 :      11.580000000000; 
    76 :       4.135000000000;     77 :       3.308000000000;     79 :       4.962000000000;     81 :       0.827000000000;     82 :      25.640000000000; 
    83 :       4.135000000000;     84 :       0.827000000000;     85 :      10.750000000000;     87 :       0.827000000000;     88 :       5.789000000000; 
    89 :       5.789000000000;     90 :      13.230000000000;     91 :      13.230000000000;     92 :       7.444000000000;     93 :      10.750000000000; 
    94 :       0.827000000000;     95 :       4.135000000000;     96 :       1.654000000000;    100 :      10.750000000000;    101 :      28.120000000000; 
   102 :      36.430000000000;    103 :       0.827000000000;    105 :      15.710000000000;    106 :       2.481000000000; 
    Origin         6
     1 :      29.020000000000;      2 :      57.890000000000;      3 :       4.154000000000;      4 :      16.620000000000;      5 :       8.271000000000; 
     7 :       8.271000000000;      8 :       9.944000000000;      9 :      35.680000000000;     10 :       9.098000000000;     11 :      31.430000000000; 
    12 :      10.750000000000;     13 :      28.970000000000;     14 :      32.290000000000;     15 :      27.290000000000;     16 :      13.270000000000; 
    17 :       7.463000000000;     18 :       4.135000000000;     19 :       0.827000000000;     20 :       0.827000000000;     21 :      15.830000000000; 
    22 :      19.250000000000;     23 :       8.290000000000;     24 :       5.789000000000;     25 :      13.230000000000;     26 :      25.640000000000; 
    27 :      23.200000000000;     28 :       9.925000000000;     29 :      44.780000000000;     30 :      18.330000000000;     31 :      14.190000000000; 
    32 :      38.950000000000;     33 :      41.450000000000;     34 :      39.040000000000;     35 :      40.810000000000;     36 :      14.080000000000; 
    37 :       8.271000000000;     38 :       9.944000000000;     39 :      26.470000000000;     40 :      27.330000000000;     41 :      11.620000000000; 
    42 :      61.450000000000;     43 :      21.500000000000;     44 :       7.444000000000;     46 :       0.827000000000;     47 :      13.330000000000; 
    48 :       5.828000000000;     49 :      14.060000000000;     50 :      10.750000000000;     51 :      12.410000000000;     56 :       4.962000000000; 
    57 :       5.789000000000;     58 :       1.654000000000;     59 :      10.750000000000;     60 :      11.580000000000;     61 :       8.271000000000; 
    62 :       7.482000000000;     63 :       9.925000000000;     66 :       4.135000000000;     67 :       1.654000000000;     68 :       6.617000000000; 
    69 :      19.020000000000;     70 :      20.680000000000;     72 :      63.720000000000;     73 :      17.370000000000;     74 :       8.271000000000; 
    75 :      11.580000000000;     76 :       9.925000000000;     77 :       0.827000000000;     78 :       1.654000000000;     79 :       0.827000000000; 
    80 :       0.827000000000;     81 :       0.827000000000;     82 :      18.200000000000;     83 :       5.789000000000;     85 :       4.962000000000; 
    86 :       6.617000000000;     88 :       4.962000000000;     89 :       7.444000000000;     90 :      18.200000000000;     91 :      13.230000000000; 
    92 :       2.481000000000;     93 :       1.654000000000;     94 :       3.308000000000;     95 :       4.135000000000;     96 :       4.135000000000; 
   100 :      18.290000000000;    101 :      31.430000000000;    102 :      44.700000000000;    103 :       1.654000000000;    104 :       2.481000000000; 
   105 :      18.250000000000;    106 :       1.654000000000;    107 :       1.654000000000; 
    Origin         7
     1 :      11.580000000000;      2 :      42.200000000000;      3 :       8.290000000000;      4 :      14.140000000000;      5 :      12.520000000000; 
     6 :       7.501000000000;      8 :       6.617000000000;      9 :      14.100000000000;     10 :       7.444000000000;     11 :      33.930000000000; 
    12 :      27.290000000000;     13 :       5.828000000000;     14 :      15.730000000000;     15 :       5.789000000000;     16 :       3.308000000000; 
    17 :       4.962000000000;     18 :       2.481000000000;     19 :       0.827000000000;     20 :       0.827000000000;     21 :       6.617000000000; 
    22 :       5.058000000000;     23 :       3.308000000000;     24 :       2.481000000000;     25 :       4.154000000000;     26 :       4.962000000000; 
    27 :       1.654000000000;     28 :       4.135000000000;     29 :      17.370000000000;     30 :      12.430000000000;     31 :       5.809000000000; 
    32 :       9.925000000000;     33 :      22.330000000000;     34 :       7.482000000000;     35 :      15.810000000000;     36 :       5.828000000000; 
    37 :       5.828000000000;     38 :       3.308000000000;     39 :       6.655000000000;     40 :       9.098000000000;     41 :       7.444000000000; 
    42 :      22.330000000000;     43 :      11.580000000000;     44 :       1.654000000000;     48 :       1.654000000000;     49 :       9.925000000000; 
    50 :       1.654000000000;     51 :       5.789000000000;     53 :       1.654000000000;     60 :       1.654000000000;     61 :       4.135000000000; 
    62 :       4.962000000000;     63 :       5.789000000000;     64 :       1.654000000000;     66 :       3.308000000000;     68 :       5.923000000000; 
    69 :       3.308000000000;     70 :       2.481000000000;     71 :       1.654000000000;     72 :      41.350000000000;     73 :       4.135000000000; 
    74 :       4.962000000000;     75 :       2.481000000000;     76 :       1.654000000000;     78 :       0.827000000000;     79 :       0.827000000000; 
    81 :       0.827000000000;     82 :      14.060000000000;     85 :       5.789000000000;     89 :       0.827000000000;     90 :       7.444000000000; 
    91 :       9.098000000000;     92 :       0.827000000000;     93 :       2.481000000000;     96 :       1.654000000000;    100 :       2.481000000000; 
   101 :       4.962000000000;    102 :      24.160000000000;    103 :       0.827000000000;    104 :       1.654000000000;    105 :       2.481000000000; 
   107 :       1.654000000000; 
    Origin         8
     1 :       1.654000000000;      2 :       6.617000000000;      3 :       1.654000000000;      4 :       2.481000000000;      5 :       0.827000000000; 
     6 :       3.308000000000;      7 :       1.654000000000;      9 :       3.308000000000;     10 :       3.308000000000;     11 :       4.135000000000; 
    12 :       3.308000000000;     13 :      12.540000000000;     14 :       3.327000000000;     15 :       2.481000000000;     16 :       4.154000000000; 
    17 :       5.020000000000;     21 :       0.827000000000;     22 :       3.308000000000;     23 :       4.962000000000;     25 :       0.827000000000; 
    26 :       5.789000000000;     27 :       0.846000000000;     28 :       0.827000000000;     29 :       4.962000000000;     30 :       1.654000000000; 
    31 :       8.423000000000;     32 :       9.982000000000;     33 :       6.617000000000;     34 :       3.327000000000;     35 :       5.020000000000; 
    36 :       1.654000000000;     37 :       1.654000000000;     38 :       0.827000000000;     39 :       4.135000000000;     40 :       5.789000000000; 
    41 :       1.654000000000;     42 :      14.100000000000;     43 :       6.655000000000;     45 :       0.827000000000;     46 :       4.174000000000; 
    47 :       1.654000000000;     49 :       2.481000000000;     50 :       2.481000000000;     51 :       2.481000000000;     52 :       2.481000000000; 
    61 :       2.481000000000;     62 :       4.135000000000;     63 :       4.962000000000;     65 :       2.481000000000;     66 :       2.481000000000; 
    69 :       4.135000000000;     70 :       9.098000000000;     71 :       1.654000000000;     72 :      10.750000000000;     73 :       4.962000000000; 
    74 :       0.827000000000;     76 :       0.827000000000;     77 :       0.827000000000;     79 :       3.308000000000;     82 :       6.617000000000; 
    85 :       1.654000000000;     87 :       0.827000000000;     89 :       1.654000000000;     90 :       0.827000000000;     91 :       4.962000000000; 
    96 :       3.308000000000;    100 :       4.962000000000;    101 :       7.444000000000;    102 :       4.962000000000;    105 :       2.481000000000; 
    Origin         9
     1 :      14.060000000000;      2 :      29.790000000000;      3 :       0.846000000000;      4 :      11.580000000000;      5 :       3.346000000000; 
     6 :       5.828000000000;      7 :       5.789000000000;      8 :      10.770000000000;     10 :       6.636000000000;     11 :       6.693000000000; 
    12 :       5.809000000000;     13 :      12.410000000000;     14 :      17.390000000000;     15 :      10.750000000000;     16 :      11.620000000000; 
    17 :       2.481000000000;     18 :       0.827000000000;     19 :       1.654000000000;     20 :       0.827000000000;     21 :      10.790000000000; 
    22 :       9.155000000000;     23 :       2.481000000000;     24 :       4.154000000000;     25 :       2.481000000000;     26 :       9.117000000000; 
    27 :       8.271000000000;     28 :       3.308000000000;     29 :       4.135000000000;     30 :       8.290000000000;     31 :      18.440000000000; 
    32 :      12.410000000000;     33 :      16.560000000000;     34 :      23.200000000000;     35 :      15.730000000000;     36 :       3.308000000000; 
    37 :       1.654000000000;     38 :       4.135000000000;     39 :       8.271000000000;     40 :      12.410000000000;     41 :       5.789000000000; 
    42 :      24.870000000000;     43 :       4.962000000000;     44 :       2.538000000000;     46 :       0.827000000000;     47 :       0.827000000000; 
    48 :       1.654000000000;     49 :       7.444000000000;     50 :       1.654000000000;     51 :      13.230000000000;     53 :       4.962000000000; 
    54 :       0.827000000000;     55 :       2.481000000000;     57 :       4.135000000000;     59 :       1.654000000000;     60 :       3.308000000000; 
    61 :       2.481000000000;     62 :       4.135000000000;     63 :       8.366000000000;     64 :       3.308000000000;     66 :       0.846000000000; 
    68 :       5.001000000000;     69 :       8.271000000000;     70 :       1.654000000000;     71 :       9.963000000000;     72 :      33.930000000000; 
    73 :      13.290000000000;     74 :       1.654000000000;     75 :       3.308000000000;     76 :       7.444000000000;     77 :       1.654000000000; 
    79 :       0.827000000000;     82 :       5.789000000000;     85 :       2.481000000000;     86 :       1.654000000000;     88 :       7.444000000000; 
    89 :       4.135000000000;     90 :      14.080000000000;     91 :       4.135000000000;     92 :       0.827000000000;     93 :       1.654000000000; 
    95 :       0.827000000000;     96 :       3.327000000000;    100 :       4.962000000000;    101 :       7.444000000000;    102 :      19.850000000000; 
   103 :       0.827000000000;    104 :       1.654000000000;    105 :       3.308000000000;    106 :       1.654000000000; 
    Origin        10
     1 :      12.410000000000;      2 :      45.490000000000;      3 :       2.481000000000;      4 :       4.154000000000;      5 :       2.481000000000; 
     6 :       4.154000000000;      7 :       2.481000000000;      8 :       4.962000000000;      9 :       4.962000000000;     11 :      12.430000000000; 
    12 :       6.636000000000;     13 :      28.990000000000;     14 :      19.890000000000;     15 :       9.925000000000;     16 :       9.117000000000; 
    17 :       9.982000000000;     18 :       2.481000000000;     21 :       7.444000000000;     22 :      10.000000000000;     23 :       7.482000000000; 
    24 :       2.481000000000;     25 :       1.654000000000;     26 :       9.925000000000;     27 :       8.271000000000;     28 :       5.789000000000; 
    29 :       6.636000000000;     30 :      18.250000000000;     31 :       4.154000000000;     32 :       7.501000000000;     33 :      16.580000000000; 
    34 :      14.120000000000;     35 :      24.930000000000;     36 :       1.654000000000;     37 :       5.885000000000;     38 :       4.135000000000; 
    39 :       8.271000000000;     40 :       4.962000000000;     41 :       5.789000000000;     42 :      33.220000000000;     43 :       4.135000000000; 
    44 :       1.654000000000;     45 :       2.481000000000;     46 :       0.827000000000;     47 :       0.827000000000;     48 :       1.654000000000; 
    49 :      15.710000000000;     50 :       4.135000000000;     51 :       5.001000000000;     54 :       0.827000000000;     56 :       3.308000000000; 
    57 :       1.654000000000;     59 :       4.135000000000;     60 :      12.410000000000;     61 :       4.962000000000;     62 :       5.789000000000; 
    63 :       5.789000000000;     65 :       1.654000000000;     66 :       1.654000000000;     68 :       5.789000000000;     69 :       4.135000000000; 
    70 :       8.271000000000;     71 :       1.654000000000;     72 :      33.910000000000;     73 :       4.981000000000;     74 :       1.654000000000; 
    75 :       4.962000000000;     76 :       0.827000000000;     78 :       1.654000000000;     82 :       8.271000000000;     83 :       4.962000000000; 
    85 :       4.962000000000;     86 :       0.827000000000;     87 :       0.827000000000;     89 :       5.789000000000;     90 :       6.617000000000; 
    91 :       6.617000000000;     92 :       0.827000000000;     93 :       3.308000000000;     95 :       1.654000000000;     96 :       0.827000000000; 
   100 :       3.308000000000;    101 :      14.060000000000;    102 :      12.460000000000;    104 :       0.827000000000;    105 :       6.617000000000; 
   106 :       2.481000000000; 
    Origin        11
     1 :      14.890000000000;      2 :      39.700000000000;      3 :       0.827000000000;      4 :       6.617000000000;      5 :       1.654000000000; 
     6 :       8.290000000000;      7 :       4.135000000000;      8 :       4.962000000000;      9 :       8.290000000000;     10 :       9.174000000000; 
    12 :      14.910000000000;     13 :      13.230000000000;     14 :      14.910000000000;     15 :       4.981000000000;     16 :       3.308000000000; 
    17 :       5.789000000000;     19 :       0.827000000000;     21 :       8.385000000000;     22 :       6.636000000000;     23 :       5.039000000000; 
    24 :       3.308000000000;     25 :       0.827000000000;     26 :       9.136000000000;     27 :       8.271000000000;     28 :       0.827000000000; 
    29 :       2.481000000000;     30 :       4.962000000000;     31 :       4.212000000000;     32 :      10.040000000000;     33 :       6.617000000000; 
    34 :      12.440000000000;     35 :      17.370000000000;     36 :       0.827000000000;     37 :       2.481000000000;     38 :       4.135000000000; 
    39 :      10.750000000000;     40 :       9.212000000000;     41 :       7.444000000000;     42 :      11.580000000000;     43 :      14.060000000000; 
    44 :       2.538000000000;     45 :       0.827000000000;     47 :       0.827000000000;     49 :       0.827000000000;     50 :       2.481000000000; 
    51 :       4.962000000000;     53 :       1.654000000000;     58 :       4.135000000000;     59 :       0.827000000000;     60 :       3.308000000000; 
    61 :       5.789000000000;     63 :       2.481000000000;     64 :       2.481000000000;     68 :       2.538000000000;     69 :      12.410000000000; 
    70 :       9.925000000000;     71 :       4.135000000000;     72 :      19.020000000000;     73 :       5.789000000000;     74 :       4.962000000000; 
    75 :       1.654000000000;     76 :       5.789000000000;     77 :       1.673000000000;     78 :       0.827000000000;     82 :       0.827000000000; 
    83 :       0.827000000000;     85 :       0.827000000000;     88 :       1.654000000000;     90 :       2.481000000000;     91 :       1.654000000000; 
    92 :       2.481000000000;     93 :       1.654000000000;     95 :       0.827000000000;    100 :       6.636000000000;    101 :       9.925000000000; 
   102 :      12.410000000000;    103 :       1.673000000000;    105 :       3.308000000000;    106 :       0.827000000000; 
    Origin        12
     1 :       8.271000000000;      2 :      40.530000000000;      3 :       4.135000000000;      4 :      13.310000000000;      5 :       1.654000000000; 
     6 :       7.482000000000;      7 :      26.500000000000;      8 :      10.750000000000;      9 :      24.040000000000;     10 :       9.117000000000; 
    11 :      63.700000000000;     13 :      42.290000000000;     14 :      19.040000000000;     15 :      27.290000000000;     16 :       5.809000000000; 
    17 :      14.080000000000;     18 :       3.308000000000;     19 :       0.827000000000;     21 :       7.463000000000;     22 :       0.827000000000; 
    23 :       0.827000000000;     24 :       2.481000000000;     25 :       5.789000000000;     26 :       9.098000000000;     27 :       9.963000000000; 
    28 :       7.463000000000;     29 :      16.540000000000;     30 :       7.444000000000;     31 :       7.463000000000;     32 :       9.155000000000; 
    33 :      18.210000000000;     34 :      11.580000000000;     35 :      20.700000000000;     36 :       5.904000000000;     38 :       5.809000000000; 
    39 :       8.271000000000;     40 :       9.925000000000;     41 :       2.481000000000;     42 :      29.850000000000;     43 :       7.482000000000; 
    46 :       0.827000000000;     47 :       2.481000000000;     48 :       3.308000000000;     49 :       3.308000000000;     50 :       4.962000000000; 
    51 :       7.444000000000;     53 :       0.827000000000;     56 :       2.481000000000;     58 :       2.481000000000;     60 :       1.692000000000; 
    61 :       3.308000000000;     62 :       3.308000000000;     63 :       0.827000000000;     65 :       2.481000000000;     66 :       2.519000000000; 
    68 :       3.308000000000;     69 :      17.370000000000;     70 :      14.060000000000;     71 :       1.654000000000;     72 :      18.200000000000; 
    73 :       9.944000000000;     74 :       2.481000000000;     75 :       2.481000000000;     82 :       5.789000000000;     83 :       0.827000000000; 
    85 :       5.789000000000;     88 :       1.654000000000;     89 :       0.827000000000;     90 :       6.617000000000;     91 :       4.135000000000; 
    93 :       3.308000000000;     94 :       0.827000000000;     95 :       2.481000000000;    100 :       3.308000000000;    101 :       6.655000000000; 
   102 :      10.750000000000;    103 :       0.827000000000;    105 :       2.481000000000; 
    Origin        13
     1 :      39.700000000000;      2 :      78.570000000000;      3 :       4.962000000000;      4 :      15.730000000000;      5 :       3.327000000000; 
     6 :      15.750000000000;      7 :      22.350000000000;      8 :      38.100000000000;      9 :      44.740000000000;     10 :      47.200000000000; 