<NUMBER OF ZONES> 135
<TOTAL OD FLOW> 64784
<END OF METADATA>

    Origin         1
    58 :      14.000000000000; 
    Origin         2
   136 :       4.000000000000;      1 :      38.000000000000;      3 :      39.000000000000;      4 :      38.000000000000;      5 :       5.000000000000; 
     6 :     124.000000000000;     23 :      83.000000000000;     25 :      38.000000000000;     29 :      38.000000000000;     41 :      36.000000000000; 
    46 :       5.000000000000;     54 :      40.000000000000;     57 :      41.000000000000;     58 :      18.000000000000;     59 :      40.000000000000; 
    66 :      37.000000000000;     71 :       5.000000000000;     80 :      36.000000000000;     83 :      79.000000000000;    137 :      37.000000000000; 
    87 :      37.000000000000;     95 :     170.000000000000;     96 :      39.000000000000;     99 :       5.000000000000;    100 :     210.000000000000; 
   101 :       2.000000000000;    139 :      38.000000000000;    102 :      38.000000000000;    107 :      44.000000000000;    108 :      95.000000000000; 
   110 :      94.000000000000;    128 :      37.000000000000;    134 :      38.000000000000;    135 :      39.000000000000; 
    Origin         3
     5 :      38.000000000000;     23 :      37.000000000000;     29 :      10.000000000000;     51 :      40.000000000000;     79 :      37.000000000000; 
   137 :      37.000000000000;     92 :      37.000000000000;     96 :      39.000000000000;     97 :      40.000000000000;    100 :      39.000000000000; 
   139 :      39.000000000000;    110 :      95.000000000000;    134 :      38.000000000000;    135 :      84.000000000000; 
    Origin         4
     2 :       6.000000000000;      3 :      85.000000000000;      7 :      46.000000000000;     11 :      53.000000000000;     24 :      43.000000000000; 
    54 :      47.000000000000;     58 :      14.000000000000;     71 :       6.000000000000;     73 :      45.000000000000;    137 :      43.000000000000; 
    84 :      42.000000000000;     94 :      45.000000000000;     97 :      46.000000000000;    101 :      13.000000000000;    102 :      85.000000000000; 
   109 :      51.000000000000; 
    Origin         5
     6 :      38.000000000000;     80 :      37.000000000000;    101 :      39.000000000000;    121 :      36.000000000000; 
    Origin         6
   136 :      45.000000000000;      2 :      45.000000000000;     29 :      45.000000000000;     37 :      44.000000000000;     49 :       6.000000000000; 
    91 :      42.000000000000;     93 :      90.000000000000;     94 :      46.000000000000;     95 :      11.000000000000;     96 :      46.000000000000; 
    97 :      46.000000000000;    101 :      13.000000000000;    139 :      45.000000000000;    102 :      45.000000000000;    103 :       6.000000000000; 
   105 :       6.000000000000;    110 :      51.000000000000;    141 :      46.000000000000;    134 :      44.000000000000; 
    Origin         7
   136 :      46.000000000000;      6 :       6.000000000000;     29 :      44.000000000000;     48 :      46.000000000000;     57 :      94.000000000000; 
    58 :      24.000000000000;     97 :      46.000000000000;    101 :      12.000000000000;    135 :      46.000000000000; 
    Origin         8
     2 :      39.000000000000;     95 :      38.000000000000;     97 :      40.000000000000;    102 :       5.000000000000; 
    Origin         9
   136 :       6.000000000000;      1 :       7.000000000000;      8 :       9.000000000000;     25 :      27.000000000000;     29 :       9.000000000000; 
    58 :       3.000000000000;     59 :       8.000000000000;     95 :       7.000000000000;     97 :       9.000000000000;     98 :       8.000000000000; 
    99 :       9.000000000000;    101 :       8.000000000000;    110 :      20.000000000000; 
    Origin        10
   136 :       4.000000000000;      1 :       6.000000000000;      2 :      13.000000000000;      3 :      12.000000000000;      4 :      10.000000000000; 
     5 :      14.000000000000;      6 :      12.000000000000;      7 :      18.000000000000;      8 :      50.000000000000;      9 :      23.000000000000; 
    11 :      51.000000000000;     12 :       9.000000000000;     13 :       8.000000000000;     14 :       9.000000000000;     16 :       7.000000000000; 
    17 :       8.000000000000;     18 :      17.000000000000;     22 :       6.000000000000;     23 :      13.000000000000;     24 :      37.000000000000; 
    25 :      31.000000000000;     26 :      19.000000000000;     28 :       6.000000000000;     29 :      32.000000000000;     30 :      25.000000000000; 
    34 :       7.000000000000;     37 :       6.000000000000;     38 :       5.000000000000;     44 :       6.000000000000;     46 :      17.000000000000; 
    48 :      11.000000000000;     53 :      12.000000000000;     54 :       6.000000000000;     57 :      11.000000000000;     58 :      32.000000000000; 
    61 :       4.000000000000;     64 :       7.000000000000;     66 :       6.000000000000;     75 :       6.000000000000;     76 :       7.000000000000; 
    81 :       5.000000000000;     83 :      38.000000000000;     84 :       6.000000000000;     88 :       6.000000000000;     92 :       7.000000000000; 
    93 :      11.000000000000;     94 :      11.000000000000;     95 :      13.000000000000;     96 :      17.000000000000;     97 :      24.000000000000; 
    98 :      12.000000000000;     99 :      18.000000000000;    100 :      61.000000000000;    101 :      27.000000000000;    139 :       7.000000000000; 
   103 :      14.000000000000;    105 :       7.000000000000;    109 :      13.000000000000;    110 :      49.000000000000;    112 :       7.000000000000; 
   113 :      14.000000000000;    116 :      14.000000000000;    124 :       7.000000000000;    129 :      13.000000000000;    135 :      45.000000000000; 
    Origin        11
   136 :       6.000000000000;      1 :      19.000000000000;      2 :       6.000000000000;      3 :       5.000000000000;      4 :      12.000000000000; 
     5 :       7.000000000000;      6 :      12.000000000000;      7 :       8.000000000000;      8 :      13.000000000000;     10 :      25.000000000000; 
    13 :       9.000000000000;     15 :       8.000000000000;     17 :       7.000000000000;     18 :       9.000000000000;     24 :       6.000000000000; 
    26 :      17.000000000000;     28 :       7.000000000000;     29 :       5.000000000000;     30 :      12.000000000000;     34 :      13.000000000000; 
    47 :       5.000000000000;     54 :       6.000000000000;     57 :       6.000000000000;     58 :       9.000000000000;     66 :       6.000000000000; 
    68 :       6.000000000000;     71 :       5.000000000000;     79 :       5.000000000000;     80 :      12.000000000000;     81 :       6.000000000000; 
    82 :       6.000000000000;     83 :       5.000000000000;     85 :       7.000000000000;     86 :      13.000000000000;     89 :       7.000000000000; 
    94 :       6.000000000000;     95 :      17.000000000000;     96 :       5.000000000000;     97 :       6.000000000000;     99 :      12.000000000000; 
   100 :      30.000000000000;    101 :      31.000000000000;    139 :       5.000000000000;    104 :       7.000000000000;    108 :      14.000000000000; 
   110 :       7.000000000000;    116 :       7.000000000000;    128 :       5.000000000000;    130 :      13.000000000000;    135 :      12.000000000000; 
    Origin        12
   136 :      27.000000000000;      1 :      34.000000000000;      2 :      33.000000000000;      3 :      13.000000000000;      4 :       6.000000000000; 
     5 :       5.000000000000;      6 :       6.000000000000;      7 :       3.000000000000;      8 :       6.000000000000;      9 :       8.000000000000; 
    10 :      17.000000000000;     11 :      16.000000000000;     16 :       5.000000000000;     17 :       9.000000000000;     21 :       7.000000000000; 
    29 :       5.000000000000;     30 :      28.000000000000;     43 :       6.000000000000;     47 :       5.000000000000;     54 :       6.000000000000; 
    57 :       6.000000000000;     58 :      21.000000000000;     80 :       6.000000000000;    137 :       7.000000000000;     95 :      20.000000000000; 
    97 :      13.000000000000;     98 :       6.000000000000;     99 :       6.000000000000;    100 :      13.000000000000;    101 :       2.000000000000; 
   108 :       6.000000000000;    112 :       7.000000000000;    113 :      15.000000000000;    132 :       7.000000000000;    135 :      13.000000000000; 
    Origin        13
   136 :      12.000000000000;      1 :      32.000000000000;      2 :      13.000000000000;      3 :       7.000000000000;      4 :      12.000000000000; 
     5 :      25.000000000000;      6 :      19.000000000000;      7 :      25.000000000000;      8 :      38.000000000000;      9 :      11.000000000000; 
    10 :       9.000000000000;     11 :      17.000000000000;     14 :       9.000000000000;     15 :       8.000000000000;     17 :       8.000000000000; 
    18 :       9.000000000000;     22 :       6.000000000000;     23 :       6.000000000000;     24 :       5.000000000000;     25 :      13.000000000000; 
    26 :      32.000000000000;     28 :       7.000000000000;     29 :       5.000000000000;     30 :      33.000000000000;     34 :       6.000000000000; 
    37 :       7.000000000000;     49 :       5.000000000000;     51 :      19.000000000000;     54 :       5.000000000000;     57 :       6.000000000000; 
    58 :      38.000000000000;     62 :       5.000000000000;     69 :       7.000000000000;     80 :      19.000000000000;     83 :       7.000000000000; 
   137 :       5.000000000000;     84 :      27.000000000000;     85 :      13.000000000000;     93 :       4.000000000000;     94 :      13.000000000000; 
    95 :      18.000000000000;     96 :       5.000000000000;     97 :      19.000000000000;     99 :      11.000000000000;    100 :      37.000000000000; 
   101 :      25.000000000000;    103 :       6.000000000000;    104 :       7.000000000000;    105 :       6.000000000000;    110 :       6.000000000000; 
   113 :       7.000000000000;    146 :       7.000000000000;    134 :      26.000000000000;    135 :      19.000000000000; 
    Origin        14
     1 :      19.000000000000;      2 :      23.000000000000;      3 :       7.000000000000;      4 :       5.000000000000;      6 :      11.000000000000; 
     7 :       9.000000000000;      9 :       8.000000000000;     12 :       9.000000000000;     13 :       9.000000000000;     15 :       7.000000000000; 
    17 :       9.000000000000;     18 :       8.000000000000;     21 :       5.000000000000;     23 :       6.000000000000;     24 :       5.000000000000; 
    29 :       6.000000000000;     30 :      19.000000000000;     37 :       6.000000000000;     47 :       5.000000000000;     48 :      11.000000000000; 
    51 :      11.000000000000;     53 :       7.000000000000;     54 :       6.000000000000;     57 :       6.000000000000;     58 :      19.000000000000; 
    80 :       6.000000000000;     81 :       7.000000000000;    137 :       6.000000000000;     84 :       6.000000000000;     96 :       6.000000000000; 
    98 :      11.000000000000;     99 :      11.000000000000;    100 :      18.000000000000;    101 :      15.000000000000;    139 :       5.000000000000; 
   103 :       7.000000000000;    104 :       7.000000000000;    105 :       6.000000000000;    107 :       7.000000000000;    110 :       7.000000000000; 
   111 :       7.000000000000;    113 :       7.000000000000;    126 :       7.000000000000;    135 :      12.000000000000; 
    Origin        15
   136 :      37.000000000000;      1 :      26.000000000000;      2 :      11.000000000000;      3 :      16.000000000000;      4 :       9.000000000000; 
     5 :      27.000000000000;      6 :      10.000000000000;      7 :      16.000000000000;      8 :      27.000000000000;      9 :      29.000000000000; 
    10 :      29.000000000000;     11 :      36.000000000000;     13 :      29.000000000000;     16 :      22.000000000000;     17 :      29.000000000000; 
    18 :       7.000000000000;     20 :      14.000000000000;     21 :       4.000000000000;     22 :       5.000000000000;     23 :       4.000000000000; 
    24 :      17.000000000000;     25 :      32.000000000000;     26 :      55.000000000000;     27 :      11.000000000000;     28 :      16.000000000000; 
    29 :      38.000000000000;     30 :       6.000000000000;     31 :       5.000000000000;     32 :      11.000000000000;     34 :      17.000000000000; 
    42 :      11.000000000000;     43 :       4.000000000000;     46 :       9.000000000000;     51 :       5.000000000000;     53 :      10.000000000000; 
    54 :       5.000000000000;     57 :      15.000000000000;     58 :      32.000000000000;     60 :       5.000000000000;     69 :      10.000000000000; 
    71 :       5.000000000000;     73 :       5.000000000000;     76 :       5.000000000000;     79 :      16.000000000000;     80 :      10.000000000000; 
    82 :       6.000000000000;     83 :       4.000000000000;    137 :      27.000000000000;     84 :       4.000000000000;     85 :       6.000000000000; 
    88 :       5.000000000000;     89 :      10.000000000000;     90 :       5.000000000000;     91 :       5.000000000000;     93 :      13.000000000000; 
    94 :      16.000000000000;     95 :      21.000000000000;     96 :      16.000000000000;     97 :      15.000000000000;     98 :      21.000000000000; 
    99 :      25.000000000000;    100 :      37.000000000000;    101 :      35.000000000000;    139 :      11.000000000000;    102 :       5.000000000000; 
   103 :      24.000000000000;    108 :      30.000000000000;    110 :      59.000000000000;    112 :       6.000000000000;    113 :       6.000000000000; 
   120 :       6.000000000000;    124 :       5.000000000000;    130 :       6.000000000000;    131 :       5.000000000000;    134 :       6.000000000000; 
   135 :      32.000000000000; 
    Origin        16
   136 :       5.000000000000;      1 :      43.000000000000;      2 :       7.000000000000;      3 :      12.000000000000;      4 :       5.000000000000; 
     5 :      18.000000000000;      6 :      17.000000000000;      7 :      13.000000000000;      8 :      12.000000000000;      9 :      24.000000000000; 
    10 :      65.000000000000;     11 :      49.000000000000;     13 :       8.000000000000;     15 :      16.000000000000;     17 :      16.000000000000; 
    18 :     138.000000000000;     19 :       5.000000000000;     20 :       9.000000000000;     22 :       5.000000000000;     23 :       5.000000000000; 
    24 :      37.000000000000;     25 :      11.000000000000;     26 :      44.000000000000;     28 :      12.000000000000;     29 :      30.000000000000; 
    30 :       6.000000000000;     31 :       6.000000000000;     32 :       7.000000000000;     34 :      19.000000000000;     42 :       6.000000000000; 
    46 :       5.000000000000;     48 :       6.000000000000;     51 :       6.000000000000;     53 :       6.000000000000;     54 :       6.000000000000; 
    57 :       6.000000000000;     58 :      48.000000000000;     59 :      12.000000000000;     63 :       6.000000000000;     73 :       6.000000000000; 
    75 :       7.000000000000;     76 :       6.000000000000;     79 :       5.000000000000;     83 :      19.000000000000;    137 :      19.000000000000; 
    85 :       5.000000000000;     86 :       7.000000000000;     89 :       6.000000000000;     93 :      10.000000000000;     94 :      11.000000000000; 
    95 :      17.000000000000;     96 :      12.000000000000;     97 :      42.000000000000;     98 :      11.000000000000;     99 :      18.000000000000; 
   100 :      36.000000000000;    101 :      22.000000000000;    103 :       6.000000000000;    104 :      21.000000000000;    107 :       7.000000000000; 
   108 :      20.000000000000;    109 :       6.000000000000;    110 :      28.000000000000;    111 :      13.000000000000;    113 :       7.000000000000; 
   114 :       6.000000000000;    116 :       7.000000000000;    117 :       7.000000000000;    119 :       7.000000000000;    120 :       7.000000000000; 
   122 :      12.000000000000;    125 :      10.000000000000;    131 :       6.000000000000;    132 :      12.000000000000;    135 :      37.000000000000; 
    Origin        17
   136 :      48.000000000000;      1 :      83.000000000000;      2 :      27.000000000000;      3 :      63.000000000000;      4 :      20.000000000000; 
     5 :      27.000000000000;      6 :      27.000000000000;      7 :      39.000000000000;      8 :      35.000000000000;      9 :       5.000000000000; 
    10 :      46.000000000000;     11 :      35.000000000000;     13 :      54.000000000000;     14 :       9.000000000000;     15 :       5.000000000000; 
    16 :      27.000000000000;     18 :      82.000000000000;     19 :       6.000000000000;     20 :      28.000000000000;     21 :       6.000000000000; 
    22 :       6.000000000000;     23 :       5.000000000000;     24 :      20.000000000000;     25 :      21.000000000000;     26 :      54.000000000000; 
    27 :      27.000000000000;     28 :       7.000000000000;     29 :      53.000000000000;     30 :       7.000000000000;     34 :      15.000000000000; 
    35 :       6.000000000000;     37 :       7.000000000000;     44 :      14.000000000000;     46 :       5.000000000000;     48 :      19.000000000000; 
    50 :       6.000000000000;     51 :      20.000000000000;     53 :       6.000000000000;     54 :       6.000000000000;     57 :      13.000000000000; 
    58 :      35.000000000000;     65 :      20.000000000000;     66 :      13.000000000000;     70 :       6.000000000000;     71 :      12.000000000000; 
    79 :       6.000000000000;     80 :      35.000000000000;     82 :       6.000000000000;     83 :      47.000000000000;    137 :      21.000000000000; 
    86 :       6.000000000000;     88 :       7.000000000000;     92 :      14.000000000000;     93 :       5.000000000000;     94 :      20.000000000000; 
    95 :      25.000000000000;     96 :      20.000000000000;     97 :      72.000000000000;     98 :      13.000000000000;     99 :      13.000000000000; 
   100 :       6.000000000000;    101 :      43.000000000000;    103 :      15.000000000000;    104 :      22.000000000000;    106 :      15.000000000000; 
   107 :      15.000000000000;    108 :       8.000000000000;    109 :      59.000000000000;    110 :      45.000000000000;    113 :      46.000000000000; 
   115 :       7.000000000000;    116 :       7.000000000000;    122 :       6.000000000000;    125 :       6.000000000000;    131 :       6.000000000000; 
   133 :       7.000000000000;    134 :      41.000000000000;    135 :      27.000000000000; 
    Origin        18
   136 :      11.000000000000;      1 :      36.000000000000;      2 :      17.000000000000;      3 :      12.000000000000;      5 :      28.000000000000; 
     6 :      11.000000000000;      7 :      12.000000000000;      8 :      12.000000000000;      9 :       6.000000000000;     10 :      16.000000000000; 
    11 :      15.000000000000;     16 :       7.000000000000;     17 :      31.000000000000;     21 :       5.000000000000;     24 :      11.000000000000; 
    25 :      17.000000000000;     26 :      17.000000000000;     28 :       6.000000000000;     29 :       4.000000000000;     30 :       6.000000000000; 
    32 :       6.000000000000;     33 :       4.000000000000;     34 :       6.000000000000;     35 :       5.000000000000;     37 :       6.000000000000; 
    46 :      16.000000000000;     51 :      11.000000000000;     52 :       5.000000000000;     54 :      11.000000000000;     58 :       9.000000000000; 
    71 :       5.000000000000;     79 :       5.000000000000;     80 :       4.000000000000;    137 :       6.000000000000;     85 :       4.000000000000; 
    88 :       6.000000000000;     95 :      16.000000000000;     97 :      17.000000000000;     98 :       5.000000000000;    100 :      28.000000000000; 
   101 :      19.000000000000;    139 :      11.000000000000;    106 :       5.000000000000;    109 :      13.000000000000;    110 :       4.000000000000; 
   113 :       6.000000000000;    132 :       4.000000000000;    134 :       6.000000000000;    135 :      23.000000000000; 
    Origin        19
   136 :       7.000000000000;      4 :       5.000000000000;      5 :      12.000000000000;      8 :       6.000000000000;     12 :       9.000000000000; 
    16 :       7.000000000000;     18 :       9.000000000000;     20 :      17.000000000000;     26 :       5.000000000000;     30 :       6.000000000000; 
    34 :       6.000000000000;     37 :       6.000000000000;     58 :       9.000000000000;     61 :       4.000000000000;     68 :       6.000000000000; 
   137 :       6.000000000000;     95 :      12.000000000000;     96 :       7.000000000000;     98 :       5.000000000000;    100 :       6.000000000000; 
   101 :       9.000000000000;    139 :       5.000000000000;    102 :       6.000000000000;    103 :       6.000000000000;    110 :       6.000000000000; 
   116 :       7.000000000000; 
    Origin        20
   136 :      13.000000000000;      1 :      14.000000000000;      2 :      14.000000000000;      3 :      22.000000000000;      5 :       8.000000000000; 
     6 :       6.000000000000;      7 :      12.000000000000;      8 :       8.000000000000;     10 :      19.000000000000;     11 :      29.000000000000; 
    12 :      10.000000000000;     15 :       9.000000000000;     16 :       9.000000000000;     17 :       6.000000000000;     18 :      38.000000000000; 
    24 :       6.000000000000;     26 :       8.000000000000;     28 :       8.000000000000;     29 :      13.000000000000;     30 :      22.000000000000; 
    48 :       7.000000000000;     58 :      14.000000000000;     80 :      21.000000000000;    137 :      22.000000000000;     97 :      14.000000000000; 
    98 :       7.000000000000;     99 :       8.000000000000;    100 :      13.000000000000;    102 :       8.000000000000;    103 :       8.000000000000; 
   110 :      15.000000000000;    122 :      14.000000000000;    135 :       7.000000000000; 
    Origin        21
     3 :       6.000000000000;      8 :       6.000000000000;     23 :      12.000000000000;     25 :      21.000000000000;     26 :       7.000000000000; 
    29 :       7.000000000000;     57 :       5.000000000000;     58 :      11.000000000000;     79 :       6.000000000000;     89 :       6.000000000000; 
    94 :       6.000000000000;     97 :       7.000000000000;    100 :       7.000000000000;    101 :       8.000000000000;    127 :       5.000000000000; 
   134 :       7.000000000000; 
    Origin        22
   136 :       6.000000000000;      1 :       9.000000000000;      4 :       8.000000000000;      9 :      13.000000000000;     21 :      19.000000000000; 
    24 :       9.000000000000;     25 :      10.000000000000;     27 :      10.000000000000;     32 :       9.000000000000;     43 :       7.000000000000; 
    58 :      13.000000000000;     79 :       8.000000000000;     99 :       9.000000000000;    101 :       4.000000000000;    104 :      10.000000000000; 
    Origin        23
     1 :      14.000000000000;      3 :      14.000000000000;      5 :      15.000000000000;      7 :      15.000000000000;     10 :      11.000000000000; 
    21 :       8.000000000000;     22 :       6.000000000000;     25 :       9.000000000000;     26 :      55.000000000000;     32 :       7.000000000000; 
    34 :       8.000000000000;     37 :      22.000000000000;     39 :       7.000000000000;     41 :       8.000000000000;     43 :       8.000000000000; 
    44 :       7.000000000000;     45 :       8.000000000000;     46 :      14.000000000000;     58 :      17.000000000000;     73 :       9.000000000000; 
    79 :       7.000000000000;     80 :       7.000000000000;     83 :       9.000000000000;    137 :       8.000000000000;     84 :       7.000000000000; 
    89 :       6.000000000000;     94 :      15.000000000000;     97 :       8.000000000000;    100 :      23.000000000000;    101 :       4.000000000000; 
   139 :       7.000000000000;    135 :      14.000000000000; 
    Origin        24
   136 :      13.000000000000;      1 :      13.000000000000;      2 :       6.000000000000;      3 :      33.000000000000;      5 :      20.000000000000; 
     6 :      12.000000000000;      7 :       9.000000000000;      8 :      39.000000000000;     10 :      10.000000000000;     11 :      37.000000000000; 
    13 :      10.000000000000;     14 :       9.000000000000;     15 :      18.000000000000;     16 :       9.000000000000;     17 :       9.000000000000; 
    18 :      28.000000000000;     21 :       7.000000000000;     23 :       5.000000000000;     25 :      51.000000000000;     26 :      29.000000000000; 
    27 :       7.000000000000;     28 :       7.000000000000;     29 :      51.000000000000;     30 :      22.000000000000;     34 :      20.000000000000; 
    35 :       6.000000000000;     41 :      19.000000000000;     43 :       5.000000000000;     44 :       7.000000000000;     45 :       6.000000000000; 
    46 :       5.000000000000;     47 :       6.000000000000;     51 :      21.000000000000;     54 :       6.000000000000;     57 :      21.000000000000; 
    58 :      35.000000000000;     61 :       4.000000000000;     70 :       7.000000000000;     71 :       7.000000000000;     80 :       5.000000000000; 
    81 :       7.000000000000;     82 :      14.000000000000;    137 :      14.000000000000;     84 :       7.000000000000;     94 :      35.000000000000; 
    95 :      12.000000000000;     96 :      13.000000000000;     97 :      28.000000000000;     98 :      14.000000000000;     99 :      14.000000000000; 
   100 :      28.000000000000;    101 :      18.000000000000;    139 :       7.000000000000;    103 :       6.000000000000;    104 :       7.000000000000; 
   108 :      14.000000000000;    109 :       8.000000000000;    110 :      28.000000000000;    141 :       7.000000000000;    135 :      54.000000000000; 
    Origin        25
    23 :       4.000000000000;     26 :       4.000000000000;     30 :       6.000000000000;     32 :       6.000000000000;     33 :       4.000000000000; 
    43 :       5.000000000000;     44 :       6.000000000000;     58 :       7.000000000000;     71 :       5.000000000000;    137 :       5.000000000000; 
    97 :       6.000000000000;     99 :       4.000000000000;    100 :       6.000000000000;    107 :       6.000000000000;    142 :       5.000000000000; 
    Origin        26
     9 :      12.000000000000;     31 :      16.000000000000;     34 :       8.000000000000;     47 :       7.000000000000;     58 :       3.000000000000; 
   137 :       7.000000000000;    101 :       6.000000000000;    134 :       9.000000000000; 
    Origin        27
   136 :       4.000000000000;      1 :       7.000000000000;     11 :       9.000000000000;     21 :       7.000000000000;     25 :      16.000000000000; 
    34 :       6.000000000000;     51 :       7.000000000000;     58 :       2.000000000000;     80 :       7.000000000000;     83 :       7.000000000000; 
    95 :       7.000000000000;     98 :       7.000000000000;    110 :       8.000000000000;    113 :       7.000000000000;    124 :       7.000000000000; 
   135 :       6.000000000000; 
    Origin        28
    10 :      10.000000000000;     61 :       5.000000000000;    110 :       7.000000000000; 
    Origin        29
     5 :       7.000000000000;      7 :       6.000000000000;     26 :       5.000000000000;     34 :       7.000000000000;     51 :       7.000000000000; 
    63 :       7.000000000000; 
    Origin        30
   136 :      17.000000000000;      1 :      42.000000000000;      2 :      55.000000000000;      3 :      29.000000000000;      4 :      12.000000000000; 
     5 :      30.000000000000;      6 :      11.000000000000;      7 :       6.000000000000;      8 :      36.000000000000;     10 :       8.000000000000; 
    11 :       8.000000000000;     13 :       7.000000000000;     16 :       7.000000000000;     17 :      25.000000000000;     20 :      18.000000000000; 
    21 :       6.000000000000;     23 :      14.000000000000;     24 :      45.000000000000;     25 :      12.000000000000;     26 :     156.000000000000; 
    27 :      19.000000000000;     28 :      60.000000000000;     29 :     286.000000000000;     32 :      11.000000000000;     34 :      17.000000000000; 
    37 :      17.000000000000;     43 :      11.000000000000;     46 :       4.000000000000;     48 :       6.000000000000;     49 :       4.000000000000; 
    51 :      25.000000000000;     54 :      18.000000000000;     57 :      30.000000000000;     58 :      84.000000000000;     64 :       6.000000000000; 
    71 :       5.000000000000;     75 :       6.000000000000;     79 :       6.000000000000;     80 :      13.000000000000;     81 :       5.000000000000; 
    82 :       6.000000000000;     83 :      11.000000000000;    137 :      19.000000000000;     90 :       5.000000000000;     93 :       5.000000000000; 
    94 :       5.000000000000;     95 :      31.000000000000;     96 :      12.000000000000;     97 :      32.000000000000;     98 :      18.000000000000; 
    99 :       6.000000000000;    100 :      26.000000000000;    101 :      43.000000000000;    139 :      11.000000000000;    102 :       5.000000000000; 
   103 :      25.000000000000;    108 :      20.000000000000;    110 :      32.000000000000;    111 :       6.000000000000;    113 :      32.000000000000; 
   115 :       6.000000000000;    116 :       6.000000000000;    120 :       6.000000000000;    125 :       5.000000000000;    128 :       5.000000000000; 
   134 :       6.000000000000;    135 :      47.000000000000; 
    Origin        31