<NUMBER OF ZONES> 135
<NUMBER OF NODES> 1052
<FIRST THRU NODE> 1
<NUMBER OF LINKS> 2836
<END OF METADATA>

 ~from 	to	capacity	length	ftime(min)	B	power	speed(mpm)	toll	type

     1    148       0.1               1        10000         0.15            4            1            0            0       ;
     1    149       0.1               1        10000         0.15            4            1            0            0       ;
     1    150       0.1               1        10000         0.15            4            1            0            0       ;
     1    151       0.1               1        10000         0.15            4            1            0            0       ;
     1    152       0.1               1        10000         0.15            4            1            0            0       ;
     1    153       0.1               1        10000         0.15            4            1            0            0       ;
     1    154       0.1               1        10000         0.15            4            1            0            0       ;
     1    155       0.1               1        10000         0.15            4            1            0            0       ;
     1    156       0.1               1        10000         0.15            4            1            0            0       ;
     1    157       0.1               1        10000         0.15            4            1            0            0       ;
     1    158       0.1               1        10000         0.15            4            1            0            0       ;
     1    159       0.1               1        10000         0.15            4            1            0            0       ;
     1    893       1e+015         0.42         25.2         0.15            4            1            0            0       ;
     1    934       1e+015         1.32         79.2         0.15            4            1            0            0       ;
     1    938       1e+015         0.42         25.2         0.15            4            1            0            0       ;
     2    909       1e+015          0.6           36         0.15            4            1            0            0       ;
     2    911       1e+015         2.04        122.4         0.15            4            1            0            0       ;
     2    923       1e+015         1.32         79.2         0.15            4            1            0            0       ;
     2    929       1e+015          1.5           90         0.15            4            1            0            0       ;
     3    902       1e+015         1.68        100.8         0.15            4            1            0            0       ;
     3    917       1e+015         0.54         32.4         0.15            4            1            0            0       ;
     3    919       1e+015          0.9           54         0.15            4            1            0            0       ;
     3    920       1e+015          0.6           36         0.15            4            1            0            0       ;
     3    932       1e+015         1.08         64.8         0.15            4            1            0            0       ;
     4   1009       1e+015          0.6           36         0.15            4            1            0            0       ;
     4   1010       1e+015         2.28        136.8         0.15            4            1            0            0       ;
     4   1029       1e+015         0.84         50.4         0.15            4            1            0            0       ;
     5    992       1e+015         0.42         25.2         0.15            4            1            0            0       ;
     5   1008       1e+015         1.62         97.2         0.15            4            1            0            0       ;
     5   1018       1e+015         0.66         39.6         0.15            4            1            0            0       ;
     6    970       1e+015         0.96         57.6         0.15            4            1            0            0       ;
     6    971       1e+015         0.78         46.8         0.15            4            1            0            0       ;
     6    972       1e+015         0.72         43.2         0.15            4            1            0            0       ;
     6    973       1e+015          0.9           54         0.15            4            1            0            0       ;
     6    974       1e+015         1.08         64.8         0.15            4            1            0            0       ;
     7    996       1e+015         0.54         32.4         0.15            4            1            0            0       ;
     7   1012       1e+015         0.78         46.8         0.15            4            1            0            0       ;
     8    840       1e+015         0.36         21.6         0.15            4            1            0            0       ;
     9    535       1e+015         1.04         62.4         0.15            4            1            0            0       ;
     9    839       1e+015         1.52         91.2         0.15            4            1            0            0       ;
    10    166       1e+015         1.56         93.6         0.15            4            1            0            0       ;
    10    200       1e+015         1.56         93.6         0.15            4            1            0            0       ;
    11    167       1e+015         1.88        112.8         0.15            4            1            0            0       ;
    11    199       1e+015          1.2           72         0.15            4            1            0            0       ;
    12    170       1e+015         0.84         50.4         0.15            4            1            0            0       ;
    13    169       1e+015         2.28        136.8         0.15            4            1            0            0       ;
    13    191       1e+015         2.28        136.8         0.15            4            1            0            0       ;
    13    197       1e+015         1.12         67.2         0.15            4            1            0            0       ;
    14    171       1e+015         0.68         40.8         0.15            4            1            0            0       ;
    14    189       1e+015         0.24         14.4         0.15            4            1            0            0       ;
    15    195       1e+015         1.88        112.8         0.15            4            1            0            0       ;
    15    224       1e+015         1.32         79.2         0.15            4            1            0            0       ;
    16    173       1e+015         2.44        146.4         0.15            4            1            0            0       ;
    16    187       1e+015         2.44        146.4         0.15            4            1            0            0       ;
    17    174       1e+015         1.68        100.8         0.15            4            1            0            0       ;
    17    186       1e+015         2.44        146.4         0.15            4            1            0            0       ;
    18    190       1e+015         1.88        112.8         0.15            4            1            0            0       ;
    18    220       1e+015         1.28         76.8         0.15            4            1            0            0       ;
    19    177       1e+015         2.16        129.6         0.15            4            1            0            0       ;
    19    183       1e+015         2.52        151.2         0.15            4            1            0            0       ;
    20    182       1e+015         0.76         45.6         0.15            4            1            0            0       ;
    20    213       1e+015         3.76        225.6         0.15            4            1            0            0       ;
    21    262       1e+015         0.68         40.8         0.15            4            1            0            0       ;
    22    278       1e+015         0.56         33.6         0.15            4            1            0            0       ;
    23    266       1e+015         1.12         67.2         0.15            4            1            0            0       ;
    23    277       1e+015         1.12         67.2         0.15            4            1            0            0       ;
    24    212       1e+015          0.8           48         0.15            4            1            0            0       ;
    24    354       1e+015         2.64        158.4         0.15            4            1            0            0       ;
    25    260       1e+015         0.52         31.2         0.15            4            1            0            0       ;
    26    285       1e+015         1.12         67.2         0.15            4            1            0            0       ;
    27    225       1e+015         1.48         88.8         0.15            4            1            0            0       ;
    27    238       1e+015         1.88        112.8         0.15            4            1            0            0       ;
    28    230       1e+015         0.52         31.2         0.15            4            1            0            0       ;
    29    240       1e+015         1.04         62.4         0.15            4            1            0            0       ;
    29    245       1e+015         3.92        235.2         0.15            4            1            0            0       ;
    30    237       1e+015          3.8          228         0.15            4            1            0            0       ;
    30    239       1e+015         1.64         98.4         0.15            4            1            0            0       ;
    31    243       1e+015         0.52         31.2         0.15            4            1            0            0       ;
    32    273       1e+015         1.12         67.2         0.15            4            1            0            0       ;
    32    274       1e+015         1.12         67.2         0.15            4            1            0            0       ;
    32    294       1e+015         0.96         57.6         0.15            4            1            0            0       ;
    32    295       1e+015          1.2           72         0.15            4            1            0            0       ;
    33    272       1e+015         0.84         50.4         0.15            4            1            0            0       ;
    34    293       1e+015         0.56         33.6         0.15            4            1            0            0       ;
    35    300       1e+015          0.6           36         0.15            4            1            0            0       ;
    36    305       1e+015         0.84         50.4         0.15            4            1            0            0       ;
    37    289       1e+015         2.56        153.6         0.15            4            1            0            0       ;
    37    336       1e+015         2.96        177.6         0.15            4            1            0            0       ;
    37    340       1e+015         2.56        153.6         0.15            4            1            0            0       ;
    37    341       1e+015         2.96        177.6         0.15            4            1            0            0       ;
    38    327       1e+015         0.56         33.6         0.15            4            1            0            0       ;
    39    329       1e+015          0.6           36         0.15            4            1            0            0       ;
    40    311       1e+015         0.48         28.8         0.15            4            1            0            0       ;
    41    312       1e+015         1.52         91.2         0.15            4            1            0            0       ;
    41    313       1e+015         1.32         79.2         0.15            4            1            0            0       ;
    42    332       1e+015         0.92         55.2         0.15            4            1            0            0       ;
    43    319       1e+015         1.76        105.6         0.15            4            1            0            0       ;
    44    339       1e+015         1.68        100.8         0.15            4            1            0            0       ;
    45    321       1e+015         0.76         45.6         0.15            4            1            0            0       ;
    45    334       1e+015         0.76         45.6         0.15            4            1            0            0       ;
    46    360       1e+015          0.4           24         0.15            4            1            0            0       ;
    46    361       1e+015          0.4           24         0.15            4            1            0            0       ;
    46    362       1e+015          1.2           72         0.15            4            1            0            0       ;
    47    376       1e+015         0.72         43.2         0.15            4            1            0            0       ;
    48    447       1e+015         0.44         26.4         0.15            4            1            0            0       ;
    49    378       1e+015         1.52         91.2         0.15            4            1            0            0       ;
    50    377       1e+015         1.48         88.8         0.15            4            1            0            0       ;
    50    382       1e+015            1           60         0.15            4            1            0            0       ;
    51    383       1e+015         1.08         64.8         0.15            4            1            0            0       ;
    51    443       1e+015         0.92         55.2         0.15            4            1            0            0       ;
    51    444       1e+015          1.4           84         0.15            4            1            0            0       ;
    51    446       1e+015         1.36         81.6         0.15            4            1            0            0       ;
    52    405       1e+015         0.84         50.4         0.15            4            1            0            0       ;
    53    394       1e+015         1.36         81.6         0.15            4            1            0            0       ;
    53    400       1e+015         0.84         50.4         0.15            4            1            0            0       ;
    53    404       1e+015         0.96         57.6         0.15            4            1            0            0       ;
    54    395       1e+015         1.32         79.2         0.15            4            1            0            0       ;
    54    434       1e+015          3.8          228         0.15            4            1            0            0       ;
    54   1035       1e+015         1.16         69.6         0.15            4            1            0            0       ;
    55    393       1e+015         1.68        100.8         0.15            4            1            0            0       ;
    55    435       1e+015          3.4          204         0.15            4            1            0            0       ;
    56    406       1e+015         0.88         52.8         0.15            4            1            0            0       ;
    57    407       1e+015         0.76         45.6         0.15            4            1            0            0       ;
    57    432       1e+015         5.28        316.8         0.15            4            1            0            0       ;
    57   1035       1e+015         1.88        112.8         0.15            4            1            0            0       ;
    58    412       1e+015         0.76         45.6         0.15            4            1            0            0       ;
    58    413       1e+015         0.92         55.2         0.15            4            1            0            0       ;
    59    481       1e+015         0.76         45.6         0.15            4            1            0            0       ;
    60    477       1e+015         1.12         67.2         0.15            4            1            0            0       ;
    61    420       1e+015         2.28        136.8         0.15            4            1            0            0       ;
    61    421       1e+015         2.28        136.8         0.15            4            1            0            0       ;
    62    411       1e+015         0.44         26.4         0.15            4            1            0            0       ;
    62    418       1e+015         2.28        136.8         0.15            4            1            0            0       ;
    62    429       1e+015         2.28        136.8         0.15            4            1            0            0       ;
    63    418       1e+015         0.76         45.6         0.15            4            1            0            0       ;
    63    419       1e+015         0.76         45.6         0.15            4            1            0            0       ;
    64    426       1e+015            1           60         0.15            4            1            0            0       ;
    65    453       1e+015         0.92         55.2         0.15            4            1            0            0       ;
    65    454       1e+015         0.76         45.6         0.15            4            1            0            0       ;
    65   1034       1e+015         1.44         86.4         0.15            4            1            0            0       ;
    66    441       1e+015            1           60         0.15            4            1            0            0       ;
    67    465       1e+015         0.48         28.8         0.15            4            1            0            0       ;
    68    456       1e+015         0.84         50.4         0.15            4            1            0            0       ;
    69    468       1e+015          0.6           36         0.15            4            1            0            0       ;
    69    473       1e+015         0.84         50.4         0.15            4            1            0            0       ;
    70    467       1e+015            1           60         0.15            4            1            0            0       ;
    70    472       1e+015         1.96        117.6         0.15            4            1            0            0       ;
    71    462       1e+015         0.44         26.4         0.15            4            1            0            0       ;
    72    457       1e+015          1.2           72         0.15            4            1            0            0       ;
    72    464       1e+015         1.88        112.8         0.15            4            1            0            0       ;
    73    483       1e+015         1.08         64.8         0.15            4            1            0            0       ;
    73    500       1e+015          1.8          108         0.15            4            1            0            0       ;
    73    501       1e+015         1.64         98.4         0.15            4            1            0            0       ;
    74    503       1e+015         1.52         91.2         0.15            4            1            0            0       ;
    75    485       1e+015         2.72        163.2         0.15            4            1            0            0       ;
    75    498       1e+015         1.72        103.2         0.15            4            1            0            0       ;
    76    493       1e+015         1.44         86.4         0.15            4            1            0            0       ;
    76    507       1e+015         1.36         81.6         0.15            4            1            0            0       ;
    77    504       1e+015         1.52         91.2         0.15            4            1            0            0       ;
    78    492       1e+015         1.88        112.8         0.15            4            1            0            0       ;
    79    620       1e+015         0.44         26.4         0.15            4            1            0            0       ;
    79    621       1e+015         0.44         26.4         0.15            4            1            0            0       ;
    79    652       1e+015         0.64         38.4         0.15            4            1            0            0       ;
    80    628       1e+015         1.36         81.6         0.15            4            1            0            0       ;
    80    629       1e+015         1.36         81.6         0.15            4            1            0            0       ;
    80    657       1e+015          1.4           84         0.15            4            1            0            0       ;
    81    653       1e+015         0.48         28.8         0.15            4            1            0            0       ;
    81    658       1e+015         0.92         55.2         0.15            4            1            0            0       ;
    82    703       1e+015         0.44         26.4         0.15            4            1            0            0       ;
    83    700       1e+015         0.88         52.8         0.15            4            1            0            0       ;
    83    701       1e+015         0.88         52.8         0.15            4            1            0            0       ;
    83    720       1e+015         1.52         91.2         0.15            4            1            0            0       ;
    83    722       1e+015         1.52         91.2         0.15            4            1            0            0       ;
    84    770       1e+015         0.68         40.8         0.15            4            1            0            0       ;
    85    771       1e+015         0.96         57.6         0.15            4            1            0            0       ;
    86    777       1e+015         1.04         62.4         0.15            4            1            0            0       ;
    86    778       1e+015         1.36         81.6         0.15            4            1            0            0       ;
    87    797       1e+015         0.76         45.6         0.15            4            1            0            0       ;
    88    786       1e+015         1.76        105.6         0.15            4            1            0            0       ;
    88    788       1e+015         1.44         86.4         0.15            4            1            0            0       ;
    88    789       1e+015         1.44         86.4         0.15            4            1            0            0       ;
    88    793       1e+015         1.76        105.6         0.15            4            1            0            0       ;
    89    798       1e+015         1.88        112.8         0.15            4            1            0            0       ;
    89    799       1e+015         1.72        103.2         0.15            4            1            0            0       ;
    90    812       1e+015         1.32         79.2         0.15            4            1            0            0       ;
    90    814       1e+015         2.56        153.6         0.15            4            1            0            0       ;
    91    813       1e+015         2.44        146.4         0.15            4            1            0            0       ;
    92    818       1e+015          3.4          204         0.15            4            1            0            0       ;
    92    819       1e+015         2.04        122.4         0.15            4            1            0            0       ;
    93    558       1e+015         0.36         21.6         0.15            4            1            0            0       ;
    94    648       1e+015          1.2           72         0.15            4            1            0            0       ;
    94    659       1e+015         1.04         62.4         0.15            4            1            0            0       ;
    94    694       1e+015         1.32         79.2         0.15            4            1            0            0       ;
    94    695       1e+015         1.32         79.2         0.15            4            1            0            0       ;
    95    601       1e+015         0.92         55.2         0.15            4            1            0            0       ;
    95    647       1e+015         0.68         40.8         0.15            4            1            0            0       ;
    95    650       1e+015          1.4           84         0.15            4            1            0            0       ;
    96    600       1e+015         0.48         28.8         0.15            4            1            0            0       ;
    96    644       1e+015         0.88         52.8         0.15            4            1            0            0       ;
    97    694       1e+015          1.6           96         0.15            4            1            0            0       ;
    97    695       1e+015          1.6           96         0.15            4            1            0            0       ;
    97    718       1e+015         1.76        105.6         0.15            4            1            0            0       ;
    97    728       1e+015          1.6           96         0.15            4            1            0            0       ;
    98    688       1e+015         0.96         57.6         0.15            4            1            0            0       ;
    98    689       1e+015         0.96         57.6         0.15            4            1            0            0       ;
    99    677       1e+015         2.48        148.8         0.15            4            1            0            0       ;
    99    687       1e+015         0.72         43.2         0.15            4            1            0            0       ;
   100    751       1e+015         0.92         55.2         0.15            4            1            0            0       ;
   100    752       1e+015         0.68         40.8         0.15            4            1            0            0       ;
   101    708       1e+015         1.96        117.6         0.15            4            1            0            0       ;
   101    836       1e+015         1.08         64.8         0.15            4            1            0            0       ;
   102    705       1e+015         1.12         67.2         0.15            4            1            0            0       ;
   102    742       1e+015         1.12         67.2         0.15            4            1            0            0       ;
   103    546       1e+015         1.08         64.8         0.15            4            1            0            0       ;
   103    548       1e+015         0.96         57.6         0.15            4            1            0            0       ;
   104    532       1e+015         0.68         40.8         0.15            4            1            0            0       ;
   104    533       1e+015         0.84         50.4         0.15            4            1            0            0       ;
   105    637       1e+015         1.12         67.2         0.15            4            1            0            0       ;
   105    639       1e+015         1.04         62.4         0.15            4            1            0            0       ;
   106    631       1e+015         1.24         74.4         0.15            4            1            0            0       ;
   106    633       1e+015         1.04         62.4         0.15            4            1            0            0       ;
   106    634       1e+015          1.4           84         0.15            4            1            0            0       ;
   106    670       1e+015         1.68        100.8         0.15            4            1            0            0       ;
   107    540       1e+015         0.96         57.6         0.15            4            1            0            0       ;
   107    541       1e+015         1.04         62.4         0.15            4            1            0            0       ;
   107    543       1e+015         1.52         91.2         0.15            4            1            0            0       ;
   107    578       1e+015         0.72         43.2         0.15            4            1            0            0       ;
   107    579       1e+015         0.72         43.2         0.15            4            1            0            0       ;
   108    524       1e+015         0.72         43.2         0.15            4            1            0            0       ;
   108    541       1e+015          1.4           84         0.15            4            1            0            0       ;
   109    684       1e+015         0.96         57.6         0.15            4            1            0            0       ;
   109    706       1e+015         0.96         57.6         0.15            4            1            0            0       ;
   110    670       1e+015         0.52         31.2         0.15            4            1            0            0       ;
   110    682       1e+015         1.88        112.8         0.15            4            1            0            0       ;
   110    686       1e+015         1.88        112.8         0.15            4            1            0            0       ;
   111    633       1e+015         1.84        110.4         0.15            4            1            0            0       ;