<NUMBER OF ZONES> 2
<TOTAL OD FLOW> 100
<END OF METADATA>

Origin         1
3 :      10.000000000000;      4 :      20.000000000000; 
Origin         2
3 :      30.000000000000;      4 :      40.000000000000; 
