<NUMBER OF ZONES> 2											
<NUMBER OF NODES> 9											
<FIRST THRU NODE> 0											
<NUMBER OF LINKS> 18											
<END OF METADATA>											

~	tail node	head node	capacity (veh/h)	length (miles)	fftt(min)	B	Power	speed limit (mph)	toll (cents)	link type	
	1	5	12.02	0.86267	300	0.15	4	0	0	3	;
	1	6	18.02	0.86267	360	0.15	4	0	0	3	;
	2	5	43.59	0.86267	180	0.15	4	0	0	3	;
	2	6	26.59	0.86267	540	0.15	4	0	0	3	;
	5	6	50.00	0.86267	60	0.15	4	0	0	3	;
	5	7	25.00	0.86267	300	0.15	4	0	0	3	;
	5	9	35.00	0.86267	120	0.15	4	0	0	3	;
	6	5	50.00	0.86267	60	0.15	4	0	0	3	;
	6	8	25.00	0.86267	300	0.15	4	0	0	3	;
	6	9	35.00	0.86267	120	0.15	4	0	0	3	;
	7	3	25.00	0.86267	180	0.15	4	0	0	3	;
	7	4	24.00	0.86267	360	0.15	4	0	0	3	;
	7	8	50.00	0.86267	60	0.15	4	0	0	3	;
	8	3	39.00	0.86267	480	0.15	4	0	0	3	;
	8	4	43.00	0.86267	360	0.15	4	0	0	3	;
	8	7	50.00	0.86267	60	0.15	4	0	0	3	;
	9	7	35.00	0.86267	120	0.15	4	0	0	3	;
	9	8	25.00	0.86267	120	0.15	4	0	0	3	;
