<NUMBER OF ZONES> 332476
<TOTAL OD FLOW> 2411433.9962
<END OF METADATA>

Origin 1716
    7984 :    6888.6545;    12485 :    2997.5184;    34492 :   27068.8011;    35406 :    2318.4137; 
   62427 :    6108.3011; 

Origin 2126
   88603 :    1836.6198;   106863 :    1205.3828; 

Origin 2920
  106863 :    2229.4599;   112806 :    1399.8912; 

Origin 5322
    5595 :    3265.4912;    15196 :    6263.8405;    34492 :    1539.8474; 

Origin 5595
    5322 :    6372.7253; 

Origin 7028
  126115 :    1332.5810;   126652 :    1275.7928; 

Origin 7770
  168814 :    1594.2055; 

Origin 7984
    1716 :    6888.6545;    12485 :    2353.2636;    34492 :   21250.9207;    35406 :    1820.1185; 
   62427 :    4795.4478; 

Origin 8345
   99891 :    1210.9147;   102449 :    1461.7111; 

Origin 9312
  168814 :    2298.1374; 

Origin 10757
   11216 :    1155.2605; 

Origin 11177
  197842 :    1152.0513; 

Origin 11216
   10757 :    1155.2605;   123507 :    2830.1619;   196672 :    1115.0800; 

Origin 12114
  156951 :    1295.7574; 

Origin 12485
    1716 :    2118.9976;     7984 :    1663.5628;    34492 :    6536.9297;    62427 :    1475.1128; 

Origin 15196
    5322 :    6263.8405; 

Origin 18289
   74277 :    1115.4734; 

Origin 20003
   21206 :    2632.2812;    49639 :    1104.6349; 

Origin 20758
   45728 :    1116.6411; 

Origin 21206
   20003 :    2632.2812;    49639 :    2362.6629;    55416 :    1716.0191;    58251 :    2179.4692; 

Origin 21424
   23761 :    1385.1014;    24481 :    1205.9820; 

Origin 21653
   49652 :    2110.4794;    49793 :    2264.7173;    50913 :    1147.4299; 

Origin 22311
   46697 :    1729.3927; 

Origin 23457
   36460 :    1132.3595; 

Origin 23650
   23761 :    1287.8071;    24481 :    1121.2697; 

Origin 23761
   21424 :    1385.1014;    23650 :    1287.8071;    24481 :    4674.8701;    25036 :    2092.5922; 
   28484 :    2320.0399;    30408 :    3320.2429;    34492 :    1857.9314;    47061 :    2276.3962; 

Origin 24481
   21424 :    1205.9820;    23650 :    1121.2697;    23761 :    4674.8701;    25036 :    1821.9811; 
   28484 :    2020.0155;    30408 :    2890.8737;    34492 :    1617.6663;    47061 :    1982.0158; 

Origin 25036
   23761 :    2092.5922;    24481 :    1821.9811;    30408 :    1294.0295; 

Origin 28249
   46697 :    1993.9373; 

Origin 28484
   23761 :    2320.0399;    24481 :    2020.0155;    30408 :    1434.6799; 

Origin 30408
   23761 :    3320.2429;    24481 :    2890.8737;    25036 :    1294.0295;    28484 :    1434.6799; 
   34492 :    1148.9186;    47061 :    1407.6913; 

Origin 31427
   33404 :    1206.6131;    36460 :    2005.1478; 

Origin 31913
   33404 :    1122.0194;    36460 :    1864.5703; 

Origin 32229
   36460 :    1101.1196; 

Origin 32576
   36460 :    1732.9613; 

Origin 33160
   36460 :    1690.0938; 

Origin 33404
   31913 :    1122.0194;    34492 :    1139.9904;    36460 :    2152.4529; 

Origin 34492
    1716 :   27068.8011;     5322 :    2946.9989;     7984 :   21250.9207;    12485 :    9247.0925; 
   23761 :    2134.8723;    24481 :    1858.7936;    30408 :    1320.1749;    31427 :    1315.4515; 
   35406 :    7152.1114;    36460 :    1761.3010;    46697 :    1590.8950;    62427 :   18843.5959; 
   64141 :    2767.9310; 

Origin 35406
    1716 :    2318.4137;     7984 :    1820.1185;    34492 :    7152.1114;    62427 :    1613.9337; 

Origin 36460
   23457 :    1132.3595;    31427 :    1452.7580;    31913 :    1864.5703;    32229 :    1101.1196; 
   32576 :    1732.9613;    33160 :    1690.0938;    33404 :    2152.4529;    34492 :    1894.4345; 

Origin 45728
   20758 :    1116.6411; 

Origin 46028
   46697 :    3750.3599; 

Origin 46697
   22311 :    1729.3927;    28249 :    1993.9373;    46028 :    3750.3599; 

Origin 47061
   23761 :    2276.3962;    24481 :    1982.0158;    30408 :    1407.6913; 

Origin 49053
   52532 :    2120.2471;    53041 :    2808.7967;    53070 :    1494.9611; 

Origin 49121
   53754 :    1195.2658;    54458 :    3991.9818;    54708 :    1286.0279;    55416 :    9757.5757; 

Origin 49475
   55416 :    1523.6532; 

Origin 49639
   20003 :    1104.6349;    21206 :    2362.6629; 

Origin 49652
   21653 :    2110.4794;    49793 :    1223.4116; 

Origin 49793
   21653 :    2264.7173;    49652 :    1223.4116; 

Origin 49999
   52080 :    2021.2470; 

Origin 50913
   21653 :    1147.4299; 

Origin 52080
   49999 :    2021.2470; 

Origin 52532
   49053 :    2120.2471;    53041 :    4862.2954;    53070 :    2587.9205; 

Origin 53041
   49053 :    2808.7967;    52532 :    4862.2954;    53070 :    3428.3470; 

Origin 53070
   49053 :    1494.9611;    52532 :    2587.9205;    53041 :    3428.3470; 

Origin 53754
   49121 :    1195.2658;    54458 :    1319.4778;    55416 :    3225.1911; 

Origin 54458
   49121 :    3991.9818;    53754 :    1319.4778;    54708 :    1419.6719;    55416 :   10771.5828; 

Origin 54708
   49121 :    1286.0279;    54458 :    1419.6719;    55416 :    3470.0948; 

Origin 55416
   21206 :    1874.9219;    49121 :    9757.5757;    49475 :    1523.6532;    53754 :    3225.1911; 
   54458 :   10771.5828;    54708 :    3470.0948; 

Origin 58251
   21206 :    2179.4692; 

Origin 61994
   67292 :    1210.1657; 

Origin 62427
    1716 :    6108.3011;     7984 :    4795.4478;    12485 :    2086.6837;    34492 :   18843.5959; 
   35406 :    1613.9337; 

Origin 64141
   34492 :    1092.1541; 

Origin 66094
   66158 :    2011.0003;    67292 :    3396.1385; 

Origin 66158
   66094 :    2011.0003;    67292 :    6448.3742;    67985 :    1465.3066; 

Origin 67292
   66094 :    3396.1385;    66158 :    6448.3742;    67985 :    2474.5815; 

Origin 67985
   66158 :    1465.3066;    67292 :    2474.5815; 

Origin 68988
   69053 :    2728.5462;    69900 :    1995.1051;    70547 :    1407.3480; 

Origin 69053
   68988 :    2728.5462; 

Origin 69900
   68988 :    1995.1051; 

Origin 70547
   68988 :    1407.3480; 

Origin 71990
   72586 :    1407.2405;    75815 :    1136.7255;    79194 :    1293.9039; 

Origin 72237
   72586 :    1310.6318;    79194 :    1205.0760; 

Origin 72519
   72586 :    1974.5973;    75815 :    1595.0189;    79194 :    1815.5669; 

Origin 72586
   71990 :    1407.2405;    72237 :    1310.6318;    72519 :    1974.5973;    75211 :    1225.6408; 
   75815 :    2156.3767;    79194 :    2454.5453; 

Origin 72766
   74892 :    1228.5001;    76707 :    2840.3818;    79832 :    1312.9732; 

Origin 74277
   18289 :    1115.4734; 

Origin 74892
   72766 :    1228.5001; 

Origin 75211
   72586 :    1225.6408;    79194 :    1126.9299; 

Origin 75815
   71990 :    1136.7255;    72519 :    1595.0189;    72586 :    2156.3767;    79194 :    1982.7061; 

Origin 76707
   72766 :    2840.3818; 

Origin 79194
   71990 :    1293.9039;    72237 :    1205.0760;    72519 :    1815.5669;    72586 :    2454.5453; 
   75211 :    1126.9299;    75815 :    1982.7061; 

Origin 79832
   72766 :    1312.9732; 

Origin 80485
  156951 :    1369.5369; 

Origin 80745
  170471 :    2119.3222; 

Origin 83908
  105491 :    1128.0612; 

Origin 84256
   93751 :    2010.9040; 

Origin 84268
   93751 :    1903.8889; 

Origin 84869
   93751 :    6911.3292; 

Origin 85503
   99201 :    4446.3450;    99891 :    9802.7821;   102449 :   11833.0674;   106863 :    1990.2164; 

Origin 85716
  106863 :    7256.5898;   107851 :    1349.5681; 

Origin 85769
   89114 :    1928.1796;   106863 :    1440.7706; 

Origin 85910
   93751 :    1973.9222; 

Origin 87207
   88603 :    1109.2548;    93751 :    1426.5400;   102449 :    1133.1355;   106863 :    2485.0241; 

Origin 87840
   88603 :    2459.1981;    96370 :    1075.1391;   106863 :    1613.9842; 

Origin 88603
    2126 :    1836.6198;    87840 :    2459.1981;    90641 :    1543.2508;    96370 :    2246.2374; 
  106863 :    3372.0210;   108668 :    1399.6923;   112057 :    1399.1603; 

Origin 89114
   85769 :    1928.1796; 

Origin 89978
   93751 :    1833.1069; 

Origin 90641
   88603 :    1543.2508; 

Origin 92329
   92958 :    4240.0928;    93033 :   20890.3767;    93751 :    1106.1893;    96139 :    1672.3817; 
  106863 :    1614.3082; 

Origin 92487
   93033 :    1488.7339; 

Origin 92958
   92329 :    4240.0928;    93033 :    8376.6174; 

Origin 93033
   92329 :   20890.3767;    92487 :    1488.7339;    92958 :    8376.6174;    93751 :    2185.3589; 
   96139 :    3303.9140;   106863 :    3189.1854; 

Origin 93751
   84256 :    2010.9040;    84268 :    1903.8889;    84869 :    6911.3292;    85769 :    1479.7273; 
   85910 :    1973.9222;    87207 :    1880.7673;    88603 :    1670.9032;    89978 :    1833.1069; 
   92329 :    2949.2328;    92958 :    1182.5825;    93033 :    5826.4278;    94376 :    6840.8841; 
  106863 :    6837.4364;   107851 :    1271.6147; 

Origin 94376
   93751 :    6840.8841; 

Origin 96139
   92329 :    1672.3817;    93033 :    3303.9140; 

Origin 96370
   87840 :    1075.1391;    88603 :    2246.2374;   106863 :    1474.2170; 

Origin 96439
   99891 :    1654.0169;   102449 :    1996.5855; 

Origin 97247
   99891 :    1402.9863;   102449 :    1693.5632; 

Origin 97913
   99891 :    1795.0989;   102449 :    2166.8875; 

Origin 99201
   85503 :    4446.3450;    99891 :    8267.9777;   102449 :    9980.3848;   106863 :    1678.6117; 

Origin 99891
    8345 :    1210.9147;    85503 :    9802.7821;    96439 :    1654.0169;    97247 :    1402.9863; 
   97913 :    1795.0989;    99201 :    8267.9777;   102449 :   22003.5866;   106863 :    3700.8071; 
  111856 :    1458.2482;   269802 :    1521.2063; 

Origin 102449
    8345 :    1461.7111;    85503 :   11833.0674;    96439 :    1996.5855;    97247 :    1693.5632; 
   97913 :    2166.8875;    99201 :    9980.3848;    99891 :   22003.5866;   106863 :    4467.2930; 
  111856 :    1760.2706;   112424 :    1258.2494;   112459 :    1105.8191;   269802 :    1836.2682; 

Origin 105027
  114965 :    1122.9731; 

Origin 105415
  106863 :    1906.6212; 

Origin 105491
   83908 :    1128.0612;   114965 :    1789.6602;   119407 :    1148.3125;   119901 :    1553.7683; 

Origin 105643
  106863 :    1157.0359; 

Origin 106194
  106863 :   12683.5771;   107851 :    2358.8699; 

Origin 106514
  106863 :    6675.8847;   107851 :    1241.5696; 

Origin 106863
    2920 :    3771.7299;    17256 :    1303.4521;    67292 :    1142.3581;    85716 :    7256.5898; 
   87207 :    1489.6655;    88603 :    1749.2863;    93033 :    1239.1228;    93751 :    4046.7661; 
   99891 :    1730.1817;   102449 :    2088.5251;   105415 :    1906.6212;   105643 :    1157.0359; 
  106194 :   12683.5771;   106514 :    6675.8847;   107851 :   16621.5446;   108877 :    1474.3824; 
  112806 :    1277.1523; 

Origin 107851
   85716 :    1349.5681;   106194 :    2358.8699;   106514 :    1241.5696;   106863 :   16621.5446; 

Origin 108668
   88603 :    1399.6923; 

Origin 108877
  106863 :    1474.3824; 

Origin 111856
   99891 :    1458.2482;   102449 :    1760.2706; 

Origin 112057
   88603 :    1399.1603; 

Origin 112424
  102449 :    1258.2494; 

Origin 112459
  102449 :    1105.8191; 

Origin 112806
    2920 :    1399.8912; 

Origin 114965
  118513 :    1316.7270;   119407 :    2625.4508;   119901 :    3552.4671; 

Origin 115625
  122636 :    2473.5293; 

Origin 116384
  117434 :    1889.9424; 

Origin 117137
  114965 :    1215.3558; 

Origin 117434
  114965 :    1474.2046;   116384 :    1889.9424;   117958 :    1661.1629;   119901 :    1279.8924; 

Origin 117958
  117434 :    1661.1629; 

Origin 118513
  114965 :    1316.7270;   119901 :    1143.1716; 

Origin 119407
  114965 :    2625.4508;   119901 :    2279.3949; 

Origin 119901
  114965 :    3552.4671;   118513 :    1143.1716;   119407 :    2279.3949; 

Origin 122636
  115625 :    2473.5293; 

Origin 123507
   11216 :    2830.1619; 

Origin 125022
  131846 :    3202.3524; 

Origin 125121
  126115 :    1142.7019;   126652 :    1094.0055; 

Origin 125485
  126415 :    2121.7621;   128168 :    5274.1399; 

Origin 125725
  138023 :    1836.5588; 

Origin 125900
  126337 :    3132.5768;   126786 :    1778.9962;   128659 :    2281.0697; 

Origin 126115
    7028 :    1332.5810;   125121 :    1142.7019;   126337 :    1527.2724;   126652 :    2269.7629; 
  127597 :    1236.9915;   128659 :    1112.1243;   128749 :    1147.2535;   131382 :    1818.0294; 

Origin 126337
  125900 :    3132.5768;   126115 :    1287.2719;   126652 :    1232.4146;   126786 :   13260.9221; 
  126812 :    1414.8051;   128659 :   17003.4582;   131570 :    1461.4919; 

Origin 126415
  125485 :    2121.7621;   128168 :    3338.6030; 

Origin 126560
  131846 :    2267.6584; 

Origin 126652
    7028 :    1275.7928;   125121 :    1094.0055;   126115 :    2269.7629;   126337 :    1462.1874; 
  127597 :    1184.2768;   128749 :    1098.3631;   131382 :    1740.5537; 

Origin 126786
  125900 :    1778.9962;   126337 :   13260.9221;   128659 :    9656.2955; 

Origin 126812
  126337 :    1414.8051; 

Origin 127001
  128168 :    1134.6098; 

Origin 127597
  126115 :    1236.9915;   126652 :    1184.2768; 

Origin 128168
  125485 :    5274.1399;   126337 :    1126.0836;   126415 :    3338.6030;   127001 :    1134.6098; 

Origin 128659
  125900 :    2281.0697;   126337 :   17003.4582;   126786 :    9656.2955; 

Origin 128749
  126115 :    1147.2535;   126652 :    1098.3631; 

Origin 131062
  131846 :    2336.2512; 

Origin 131382
  126115 :    1818.0294;   126337 :    1171.1794;   126652 :    1740.5537; 

Origin 131570
  126337 :    1461.4919; 

Origin 131713
  131846 :    2647.1302; 

Origin 131846
  125022 :    3202.3524;   126560 :    2267.6584;   131062 :    2336.2512;   131713 :    2647.1302; 

Origin 133287
  136544 :    2847.9570; 

Origin 133569
  136544 :    1230.4752; 

Origin 136007
  136544 :    3856.6302; 

Origin 136544
  133287 :    2847.9570;   133569 :    1230.4752;   136007 :    3856.6302; 

Origin 137190
  136544 :    1580.1390; 

Origin 137492
  138023 :    1244.7648; 

Origin 138023
  125725 :    1836.5588;   137492 :    1244.7648; 

Origin 138422
  203380 :    1323.2014; 

Origin 139041
  201235 :    1794.0649;   201715 :    2497.5168;   202028 :    1772.8415; 

Origin 139517
  204754 :    1352.4522; 

Origin 141444
  289927 :    1378.7522;   291895 :    1908.3565; 

Origin 142706
  143103 :    1274.9236; 

Origin 142937
  226809 :    1484.1109;   226836 :    2528.9774; 

Origin 143103
  142706 :    1274.9236; 

Origin 143179
  208964 :    5884.1785; 

Origin 144376
  214025 :    1249.6928; 

Origin 144377
  214025 :    1353.5981; 

Origin 144514
  156951 :    1319.2607; 

Origin 144832
  210573 :    1836.7634; 

Origin 145434
  179753 :    1437.1514;   208964 :   10538.5756;   227690 :    1462.7136; 

Origin 145599
  208964 :    1147.0316; 

Origin 145952
  168013 :    2563.1531;   219125 :    1171.5417; 

Origin 146479
  168013 :    1919.8742; 

Origin 146652
  168013 :    1468.9011; 

Origin 146659
  168013 :    1557.2948; 

Origin 147355
  168013 :    1591.8536; 

Origin 148497
  148655 :    1528.2019;   157603 :    1159.5681; 

Origin 148655
  148497 :    1528.2019;   157603 :    1807.5711; 

Origin 149712
  159134 :    1095.7444; 

Origin 149833
  150607 :    1307.1331;   165296 :    1165.3558; 

Origin 150093
  156951 :    1191.3198; 

Origin 150607
  149833 :    1307.1331; 

Origin 151768
  151905 :    1259.3814; 

Origin 151905
  151768 :    1259.3814;   153126 :    2230.5441; 

Origin 153126
  151905 :    2230.5441; 

Origin 155481
  156951 :    2388.6788; 

Origin 156072
  156951 :    1945.8864; 

Origin 156617
  156951 :    1360.4972; 

Origin 156951
   12114 :    1295.7574;    80485 :    1369.5369;   144514 :    1319.2607;   150093 :    1191.3198; 
  155481 :    2388.6788;   156072 :    1945.8864;   156617 :    1360.4972;   167198 :    1286.0162; 

Origin 157603
  148497 :    1159.5681;   148655 :    1807.5711; 

Origin 158510
  159134 :    1489.6903; 

Origin 158590
  159134 :    1305.9283; 

Origin 159134
  149712 :    1095.7444;   158510 :    1489.6903;   158590 :    1305.9283; 

Origin 162144
  162570 :    1486.2094;   165296 :    1233.4227; 

Origin 162570
  162144 :    1486.2094; 

Origin 163184
  165296 :    1378.7080; 

Origin 163790
  149833 :    1437.9479; 

Origin 164148
  165296 :    1904.8660; 

Origin 165296
  162144 :    1318.1999;   163184 :    1378.7080;   164148 :    1904.8660; 

Origin 166522
  168013 :    1373.1093; 

Origin 166728
  167198 :    4651.4971; 

Origin 167198
  156951 :    2347.2325;   166728 :    4651.4971; 

Origin 168013
  145952 :    2563.1531;   146479 :    1919.8742;   146652 :    1468.9011;   146659 :    1557.2948; 
  147355 :    1591.8536;   166522 :    1373.1093;   191931 :    2305.1931;   219125 :    3375.3055; 
  219204 :    1454.2229; 

Origin 168814
    7770 :    1594.2055;     9312 :    2298.1374;   171121 :    1676.2190; 

Origin 169735
  170471 :    1314.3719; 

Origin 170471
   80745 :    2119.3222;   169735 :    1314.3719; 

Origin 171121
  168814 :    1676.2190; 

Origin 172742
  176109 :    1626.4330; 

Origin 174095
  176109 :    1115.6942; 

Origin 174185
  176109 :    3740.1116;   177211 :    1315.8616;   177425 :    1592.1046; 

Origin 174406
  176109 :    1566.7618; 

Origin 175205
  176109 :    1500.6825; 

Origin 175348
  176109 :    2797.6210;   177425 :    1190.9017; 

Origin 176109
  172742 :    1626.4330;   174095 :    1115.6942;   174185 :    3740.1116;   174406 :    1566.7618; 
  175205 :    1500.6825;   175348 :    2797.6210;   177211 :    4495.2742;   177425 :    5438.9815; 

Origin 177211
  174185 :    1315.8616;   176109 :    4495.2742;   177425 :    1913.5650; 

Origin 177425
  174185 :    1592.1046;   175348 :    1190.9017;   176109 :    5438.9815;   177211 :    1913.5650; 

Origin 179753
  145434 :    1437.1514;   208964 :    7973.5241;   227690 :    1106.6944; 

Origin 179821
  208964 :    1213.8860; 

Origin 181256
  208964 :    1570.7027; 

Origin 181365
  208964 :    1114.7304;   220590 :    1230.3717; 

Origin 187232
  190366 :    4012.2330;   190943 :    1160.9466; 

Origin 188368
  190366 :    2223.6414; 

Origin 188540
  192695 :    3082.7331; 

Origin 190366
  187232 :    4012.2330;   188368 :    2223.6414;   190943 :    2778.6597; 

Origin 190943
  187232 :    1160.9466;   190366 :    2778.6597; 

Origin 191931
  168013 :    2305.1931; 

Origin 192695
  188540 :    3082.7331; 

Origin 193154
  220590 :    1158.8400; 

Origin 193569
  208964 :    1236.8193; 

Origin 195306
  197842 :    2778.0607;   198954 :    1414.7143; 

Origin 195860
  197842 :    1688.8423; 

Origin 196672
   11216 :    1115.0800; 

Origin 197842
   11177 :    1152.0513;   195306 :    2778.0607;   195860 :    1688.8423;   197947 :    2171.3854; 
  198954 :    3841.1191; 

Origin 197947
  197842 :    2171.3854;   198954 :    1105.7678; 

Origin 198954
  195306 :    1414.7143;   197842 :    3841.1191;   197947 :    1105.7678; 

Origin 201235
  139041 :    1794.0649;   201715 :    1976.6824;   202028 :    1403.1315; 

Origin 201715
  139041 :    2497.5168;   201235 :    1976.6824;   202028 :    1953.2987; 

Origin 202028
  139041 :    1772.8415;   201235 :    1403.1315;   201715 :    1953.2987; 

Origin 203380
  138422 :    1323.2014; 

Origin 203727
  205381 :    2670.3175; 

Origin 204357
  205381 :    1335.6966; 

Origin 204754
  139517 :    1352.4522;   256862 :    1082.4933; 

Origin 205139
  205381 :    1213.1135; 

Origin 205342
  212725 :    1989.0132; 

Origin 205381
  203727 :    2670.3175;   204357 :    1335.6966;   205139 :    1213.1135; 

Origin 205584
  212725 :    3664.8681;   213708 :    1109.5301; 

Origin 206759
  206870 :    2313.2033;   207258 :    1477.9192;   208964 :    2061.2058; 

Origin 206870
  206759 :    2313.2033; 

Origin 207258
  206759 :    1477.9192; 

Origin 208964
  143179 :    5884.1785;   145434 :   10538.5756;   145599 :    1147.0316;   179753 :    7973.5241; 
  179821 :    1213.8860;   181256 :    1570.7027;   193569 :    1236.8193;   206759 :    2437.4429; 
  222488 :    3567.5597;   227690 :    8115.3467;   228244 :    1225.7737; 

Origin 210573
  144832 :    1836.7634;   211529 :    1376.5792;   211661 :    1140.0504; 

Origin 211529
  210573 :    1376.5792; 

Origin 211661
  210573 :    1140.0504; 

Origin 212725
  205342 :    1989.0132;   205584 :    3664.8681;   213708 :    2356.7361; 

Origin 213708
  205584 :    1109.5301;   212725 :    2356.7361; 

Origin 214025
  144376 :    1249.6928;   144377 :    1353.5981; 

Origin 215803
  222118 :    2290.1536; 

Origin 216219
  228244 :    1139.7370; 

Origin 216407
  220539 :    1072.2164;   228244 :    2399.9068; 

Origin 217105
  228244 :    1291.3319; 

Origin 217975
  222118 :    1447.8457; 

Origin 218018
  222118 :    1629.4137; 

Origin 219125
  145952 :    1171.5417;   168013 :    3375.3055; 

Origin 219204
  168013 :    1454.2229; 

Origin 220539
  216407 :    1072.2164;   228244 :    5029.4790; 

Origin 220590
  181365 :    1230.3717;   193154 :    1158.8400;   208964 :    1523.0004; 

Origin 220691
  222118 :    1391.3797; 

Origin 222118
  215803 :    2290.1536;   217975 :    1447.8457;   218018 :    1629.4137;   220691 :    1391.3797; 
  224147 :    1170.0107;   227855 :    1423.2425;   228244 :    1200.1650; 

Origin 222488
  208964 :    3567.5597; 

Origin 223223
  228244 :    1081.8121; 

Origin 223658
  228244 :    1687.2357; 

Origin 224147
  222118 :    1170.0107; 

Origin 226809
  142937 :    1484.1109; 

Origin 226836
  142937 :    2528.9774; 

Origin 227690
  145434 :    1462.7136;   179753 :    1106.6944;   208964 :    8115.3467; 

Origin 227855
  222118 :    1423.2425; 

Origin 228244
  208964 :    1665.8795;   216219 :    1139.7370;   216407 :    2399.9068;   217105 :    1291.3319; 
  220539 :    5029.4790;   222118 :    1111.7817;   223223 :    1081.8121;   223658 :    1687.2357; 

Origin 233078
  233124 :    1395.0675;   319233 :    1833.3476; 

Origin 233124
  233078 :    1395.0675; 

Origin 233324
  233402 :    2309.6852;   233661 :    1452.5923;   299448 :    1521.2642;   317510 :    1398.2196; 

Origin 233402
  233324 :    2375.3465; 

Origin 233559
  301873 :    1539.3394;   307042 :    2889.7386;   307213 :    2498.7719;   310446 :    1780.6536; 
  311631 :    1543.5560;   315460 :    1104.8282; 

Origin 233661
  299448 :    2142.0645;   317510 :    1968.8076;   318123 :    1124.0644; 

Origin 234782
  304577 :    1813.5381; 

Origin 235014
  284377 :    1934.9394; 

Origin 235074
  284377 :    1361.9162; 

Origin 235736
  294808 :    1087.0898; 

Origin 236584
  326680 :    1984.8726; 

Origin 236781
  320991 :    1076.9954;   331697 :    1518.6290; 

Origin 241098
  264493 :    2302.8586; 

Origin 241289
  264493 :    1467.7951; 

Origin 245309
  245445 :    1191.1023;   246841 :    1965.4459; 

Origin 245445
  245309 :    1191.1023; 

Origin 246841
  245309 :    1965.4459; 

Origin 248567
  248750 :    1159.4975; 

Origin 248678
  248750 :    1201.0664;   267602 :    1091.4773; 

Origin 248750
  248567 :    1159.4975;   248678 :    1201.0664;   267602 :    1509.6268; 

Origin 249650
  250177 :    1250.2535; 

Origin 250177
  249650 :    1250.2535;   250373 :    1329.5503;   250398 :    1258.6983; 

Origin 250373
  250177 :    1329.5503; 

Origin 250398
  250177 :    1258.6983; 

Origin 250961
  252677 :    1396.2048; 

Origin 252677
  250961 :    1396.2048; 

Origin 253890
  262812 :    2057.1544; 

Origin 254956
  257543 :    2027.0410; 

Origin 256778
  257543 :    2815.9417; 

Origin 256862
  204754 :    1082.4933; 

Origin 257543
  204754 :    1195.2694;   254956 :    2027.0410;   256778 :    2815.9417;   258260 :    2256.7627; 

Origin 258260
  257543 :    2256.7627; 

Origin 258827
  262812 :    1193.6475; 

Origin 260213
  264493 :    2455.5616; 

Origin 260417
  264493 :    1933.7592; 

Origin 261393
  262812 :    2423.9347; 

Origin 261664
  262812 :    1508.0084; 

Origin 262583
  262812 :    3485.6261; 

Origin 262812
  253890 :    2057.1544;   258827 :    1193.6475;   261393 :    2423.9347;   261664 :    1508.0084; 
  262583 :    3485.6261; 

Origin 264493
  241098 :    2302.8586;   241289 :    1467.7951;   260213 :    2455.5616;   260417 :    1933.7592; 
  277760 :    4109.1611; 

Origin 265462
  269802 :    1329.9366; 

Origin 266396
  271912 :    2018.7354;   271959 :    1386.6482; 

Origin 266625
  269802 :    2249.0481; 

Origin 267602
  248678 :    1091.4773;   248750 :    1509.6268; 

Origin 269024
  269802 :    1441.4895; 

Origin 269131
  269802 :    3186.8971; 

Origin 269802
  265462 :    1329.9366;   266625 :    2249.0481;   269024 :    1441.4895;   269131 :    3186.8971; 

Origin 271912
  266396 :    2018.7354;   271959 :    1223.7791; 

Origin 271959
  266396 :    1386.6482;   271912 :    1223.7791; 

Origin 273732
  280035 :    2034.0084; 

Origin 273773
  282221 :    1201.1576;   282586 :    1080.7019; 

Origin 274068
  304577 :    1720.9697; 

Origin 274975
  278902 :    1179.2166; 

Origin 275186
  286963 :    1399.5125; 

Origin 277760
  264493 :    4109.1611; 

Origin 278534
  280035 :    2292.2484; 

Origin 278902
  274975 :    1179.2166;   279342 :    2651.3838;   279983 :    2547.0108;   280847 :    1498.9454; 
  282221 :    1184.5984; 

Origin 279342
  278902 :    2651.3838;   279983 :    1785.8372; 

Origin 279983
  278902 :    2547.0108;   279342 :    1785.8372; 

Origin 280035
  273732 :    2034.0084;   278534 :    2292.2484;   280928 :    1101.5378; 

Origin 280847
  278902 :    1498.9454; 

Origin 280928
  280035 :    1101.5378; 

Origin 282221
  273773 :    1201.1576;   278902 :    1305.2567;   282586 :    3962.1897; 

Origin 282586
  273773 :    1080.7019;   278902 :    1174.3616;   282221 :    3962.1897; 

Origin 284377
  235014 :    1934.9394; 

Origin 286573
  304577 :    1357.1977; 

Origin 286963
  275186 :    1399.5125; 

Origin 287180
  305889 :    1474.0978; 

Origin 287672
  293765 :    1584.5081;   294808 :    3607.1666;   296618 :    1281.0944; 

Origin 288630
  289927 :    1512.7491;   291895 :    2093.8240; 

Origin 288728
  289927 :    3289.7850;   291895 :    4553.4525; 

Origin 289927
  141444 :    1378.7522;   288630 :    1512.7491;   288728 :    3289.7850;   291895 :    6612.1332; 

Origin 291895
  141444 :    1908.3565;   288630 :    2093.8240;   288728 :    4553.4525;   289927 :    6612.1332; 

Origin 293765
  287672 :    1584.5081; 

Origin 294808
  235736 :    1087.0898;   287672 :    1236.2537;   295046 :    2999.0644; 

Origin 295046
  294808 :    2999.0644; 

Origin 296618
  287672 :    1281.0944; 

Origin 298749
  301201 :    1352.6465;   302578 :    1371.6605;   309606 :    1119.9898;   315075 :    1517.4843; 

Origin 298951
  299270 :    1262.1076;   305965 :    1120.7169; 

Origin 299270
  298951 :    1262.1076;   300320 :    1134.6500;   305965 :    1918.6895; 

Origin 299448
  233661 :    2124.6114;   317510 :    2820.0800;   318123 :    1610.0870; 

Origin 300320
  299270 :    1134.6500; 

Origin 300727
  315075 :    1182.8919; 

Origin 301099
  302578 :    1075.0466;   315075 :    1189.3369; 

Origin 301201
  298749 :    1352.6465;   302578 :    1776.9282;   303378 :    1175.4112;   307959 :    1328.6417; 
  309606 :    1450.8994;   315075 :    1965.8369; 

Origin 301873
  233559 :    1539.3394;   307042 :    2614.0772;   307213 :    2260.4060;   310446 :    1610.7914; 
  311631 :    1396.3112; 

Origin 302578
  298749 :    1371.6605;   301099 :    1075.0466;   301201 :    1776.9282;   303378 :    1191.9338; 
  307959 :    1347.3183;   309606 :    1471.2946;   315075 :    1993.4704; 

Origin 303378
  301201 :    1175.4112;   302578 :    1191.9338;   315075 :    1318.6506; 

Origin 304044
  304488 :    1122.1060;   304577 :    2033.8432; 

Origin 304488
  304044 :    1122.1060;   304577 :    2726.3293; 

Origin 304577
  234782 :    1813.5381;   274068 :    1720.9697;   286573 :    1357.1977;   304044 :    2033.8432; 
  304488 :    2726.3293; 

Origin 305889
  287180 :    1474.0978; 

Origin 305965
  298951 :    1120.7169;   299270 :    1918.6895; 

Origin 307042
  233559 :    2889.7386;   301873 :    2614.0772;   307213 :    4243.3675;   310446 :    3023.8726; 
  311631 :    2621.2378;   315460 :    1876.1985; 

Origin 307213
  233559 :    2505.8804;   301873 :    2266.8364;   307042 :    4255.4390;   310446 :    2622.1966; 
  311631 :    2273.0458;   315460 :    1626.9738; 

Origin 307959
  301201 :    1328.6417;   302578 :    1347.3183;   309606 :    1100.1139;   315075 :    1490.5543; 

Origin 309606
  298749 :    1119.9898;   301201 :    1450.8994;   302578 :    1471.2946;   307959 :    1100.1139; 
  315075 :    1627.7107; 

Origin 310446
  233559 :    1780.6536;   301873 :    1610.7914;   307042 :    3023.8726;   307213 :    2614.7582; 
  311631 :    1615.2037;   315460 :    1156.1114; 

Origin 311631
  233559 :    1543.5560;   301873 :    1396.3112;   307042 :    2621.2378;   307213 :    2266.5978; 
  310446 :    1615.2037; 

Origin 315075
  298749 :    1517.4843;   300727 :    1182.8919;   301099 :    1189.3369;   301201 :    1965.8369; 
  302578 :    1993.4704;   303378 :    1318.6506;   307959 :    1490.5543;   309606 :    1627.7107; 

Origin 315460
  233559 :    1104.8282;   307042 :    1876.1985;   307213 :    1622.3585;   310446 :    1156.1114; 

Origin 317510
  233661 :    1952.7662;   299448 :    2820.0800;   318123 :    1479.8581; 

Origin 318123
  233661 :    1114.9058;   299448 :    1610.0870;   317510 :    1479.8581; 

Origin 319233
  233078 :    1833.3476; 

Origin 319351
  233324 :    1142.8095; 

Origin 320572
  326680 :    2159.8725;   326771 :    1152.5611;   329270 :    1077.5488; 

Origin 320991
  236781 :    1076.9954; 

Origin 321127
  325771 :    2854.9764; 

Origin 321914
  325771 :    1182.2593; 

Origin 322789
  323540 :    1204.5909; 

Origin 323387
  323540 :    1799.4826; 

Origin 323540
  322789 :    1204.5909;   323387 :    1799.4826;   324305 :    1206.3994; 

Origin 324305
  323540 :    1206.3994; 

Origin 325771
  321127 :    2854.9764;   321914 :    1182.2593;   327452 :    1394.4895; 

Origin 326680