<NUMBER OF ZONES> 1
<TOTAL OD FLOW> 40000.0
<END OF METADATA>


Origin 	1 
    4 :      40000.0; 



