<NUMBER OF ZONES> 387											
<NUMBER OF NODES> 933											
<FIRST THRU NODE> 1											
<NUMBER OF LINKS> 2950											
<END OF METADATA>											

~	tail node	head node	capacity (veh/h)	length (miles)	fftt(min)	B	Power	speed limit (mph)	toll (cents)	link type	
	1	547	49500	0.86267	0	0.15	4	0	0	3	;
	2	548	49500	0.86267	0	0.15	4	0	0	3	;
	3	549	49500	0.86267	0	0.15	4	0	0	3	;
	4	550	49500	0.86267	0	0.15	4	0	0	3	;
	5	551	49500	0.86267	0	0.15	4	0	0	3	;
	6	552	49500	0.86267	0	0.15	4	0	0	3	;
	7	553	49500	0.86267	0	0.15	4	0	0	3	;
	8	554	49500	0.86267	0	0.15	4	0	0	3	;
	9	555	49500	0.86267	0	0.15	4	0	0	3	;
	10	556	49500	0.86267	0	0.15	4	0	0	3	;
	11	557	49500	0.86267	0	0.15	4	0	0	3	;
	12	558	49500	0.86267	0	0.15	4	0	0	3	;
	13	559	49500	0.86267	0	0.15	4	0	0	3	;
	14	560	49500	0.86267	0	0.15	4	0	0	3	;
	15	561	49500	0.86267	0	0.15	4	0	0	3	;
	16	562	49500	0.86267	0	0.15	4	0	0	3	;
	17	563	49500	0.86267	0	0.15	4	0	0	3	;
	18	564	49500	0.86267	0	0.15	4	0	0	3	;
	19	565	49500	0.86267	0	0.15	4	0	0	3	;
	20	566	49500	0.86267	0	0.15	4	0	0	3	;
	21	567	49500	0.86267	0	0.15	4	0	0	3	;
	22	568	49500	0.86267	0	0.15	4	0	0	3	;
	23	569	49500	0.86267	0	0.15	4	0	0	3	;
	24	570	49500	0.86267	0	0.15	4	0	0	3	;
	25	571	49500	0.86267	0	0.15	4	0	0	3	;
	26	572	49500	0.86267	0	0.15	4	0	0	3	;
	27	573	49500	0.86267	0	0.15	4	0	0	3	;
	28	574	49500	0.86267	0	0.15	4	0	0	3	;
	29	575	49500	0.86267	0	0.15	4	0	0	3	;
	30	576	49500	0.86267	0	0.15	4	0	0	3	;
	31	577	49500	0.86267	0	0.15	4	0	0	3	;
	32	578	49500	0.86267	0	0.15	4	0	0	3	;
	33	579	49500	0.86267	0	0.15	4	0	0	3	;
	34	580	49500	0.86267	0	0.15	4	0	0	3	;
	35	581	49500	0.86267	0	0.15	4	0	0	3	;
	36	582	49500	0.86267	0	0.15	4	0	0	3	;
	37	583	49500	0.86267	0	0.15	4	0	0	3	;
	38	584	49500	0.86267	0	0.15	4	0	0	3	;
	39	585	49500	0.86267	0	0.15	4	0	0	3	;
	40	586	49500	0.86267	0	0.15	4	0	0	3	;
	41	587	49500	0.86267	0	0.15	4	0	0	3	;
	42	588	49500	0.86267	0	0.15	4	0	0	3	;
	43	589	49500	0.86267	0	0.15	4	0	0	3	;
	44	590	49500	0.86267	0	0.15	4	0	0	3	;
	45	591	49500	0.86267	0	0.15	4	0	0	3	;
	46	592	49500	0.86267	0	0.15	4	0	0	3	;
	47	593	49500	0.86267	0	0.15	4	0	0	3	;
	48	594	49500	0.86267	0	0.15	4	0	0	3	;
	49	595	49500	0.86267	0	0.15	4	0	0	3	;
	50	596	49500	0.86267	0	0.15	4	0	0	3	;
	51	597	49500	0.86267	0	0.15	4	0	0	3	;
	52	598	49500	0.86267	0	0.15	4	0	0	3	;
	53	599	49500	0.86267	0	0.15	4	0	0	3	;
	54	600	49500	0.86267	0	0.15	4	0	0	3	;
	55	601	49500	0.86267	0	0.15	4	0	0	3	;
	56	602	49500	0.86267	0	0.15	4	0	0	3	;
	57	603	49500	0.86267	0	0.15	4	0	0	3	;
	58	604	49500	0.86267	0	0.15	4	0	0	3	;
	59	605	49500	0.86267	0	0.15	4	0	0	3	;
	60	606	49500	0.86267	0	0.15	4	0	0	3	;
	61	607	49500	0.86267	0	0.15	4	0	0	3	;
	62	608	49500	0.86267	0	0.15	4	0	0	3	;
	63	609	49500	0.86267	0	0.15	4	0	0	3	;
	64	610	49500	0.86267	0	0.15	4	0	0	3	;
	65	611	49500	0.86267	0	0.15	4	0	0	3	;
	66	612	49500	0.86267	0	0.15	4	0	0	3	;
	67	613	49500	0.86267	0	0.15	4	0	0	3	;
	68	614	49500	0.86267	0	0.15	4	0	0	3	;
	69	615	49500	0.86267	0	0.15	4	0	0	3	;
	70	616	49500	0.86267	0	0.15	4	0	0	3	;
	71	617	49500	0.86267	0	0.15	4	0	0	3	;
	72	618	49500	0.86267	0	0.15	4	0	0	3	;
	73	619	49500	0.86267	0	0.15	4	0	0	3	;
	74	620	49500	0.86267	0	0.15	4	0	0	3	;
	75	621	49500	0.86267	0	0.15	4	0	0	3	;
	76	622	49500	0.86267	0	0.15	4	0	0	3	;
	77	623	49500	0.86267	0	0.15	4	0	0	3	;
	78	624	49500	0.86267	0	0.15	4	0	0	3	;
	79	625	49500	0.86267	0	0.15	4	0	0	3	;
	80	626	49500	0.86267	0	0.15	4	0	0	3	;
	81	627	49500	0.86267	0	0.15	4	0	0	3	;
	82	628	49500	0.86267	0	0.15	4	0	0	3	;
	83	629	49500	0.86267	0	0.15	4	0	0	3	;
	84	630	49500	0.86267	0	0.15	4	0	0	3	;
	85	631	49500	0.86267	0	0.15	4	0	0	3	;
	86	632	49500	0.86267	0	0.15	4	0	0	3	;
	87	633	49500	0.86267	0	0.15	4	0	0	3	;
	88	634	49500	0.86267	0	0.15	4	0	0	3	;
	89	635	49500	0.86267	0	0.15	4	0	0	3	;
	90	636	49500	0.86267	0	0.15	4	0	0	3	;
	91	637	49500	0.86267	0	0.15	4	0	0	3	;
	92	638	49500	0.86267	0	0.15	4	0	0	3	;
	93	639	49500	0.86267	0	0.15	4	0	0	3	;
	94	640	49500	0.86267	0	0.15	4	0	0	3	;
	95	641	49500	0.86267	0	0.15	4	0	0	3	;
	96	642	49500	0.86267	0	0.15	4	0	0	3	;
	97	643	49500	0.86267	0	0.15	4	0	0	3	;
	98	644	49500	0.86267	0	0.15	4	0	0	3	;
	99	645	49500	0.86267	0	0.15	4	0	0	3	;
	100	646	49500	0.86267	0	0.15	4	0	0	3	;
	101	647	49500	0.86267	0	0.15	4	0	0	3	;
	102	648	49500	0.86267	0	0.15	4	0	0	3	;
	103	649	49500	0.86267	0	0.15	4	0	0	3	;
	104	650	49500	0.86267	0	0.15	4	0	0	3	;
	105	651	49500	0.86267	0	0.15	4	0	0	3	;
	106	652	49500	0.86267	0	0.15	4	0	0	3	;
	107	653	49500	0.86267	0	0.15	4	0	0	3	;
	108	654	49500	0.86267	0	0.15	4	0	0	3	;
	109	655	49500	0.86267	0	0.15	4	0	0	3	;
	110	656	49500	0.86267	0	0.15	4	0	0	3	;
	111	657	49500	0.86267	0	0.15	4	0	0	3	;
	112	658	49500	0.86267	0	0.15	4	0	0	3	;
	113	659	49500	0.86267	0	0.15	4	0	0	3	;
	114	660	49500	0.86267	0	0.15	4	0	0	3	;
	115	661	49500	0.86267	0	0.15	4	0	0	3	;
	116	662	49500	0.86267	0	0.15	4	0	0	3	;
	117	663	49500	0.86267	0	0.15	4	0	0	3	;
	118	664	49500	0.86267	0	0.15	4	0	0	3	;
	119	665	49500	0.86267	0	0.15	4	0	0	3	;
	120	666	49500	0.86267	0	0.15	4	0	0	3	;
	121	667	49500	0.86267	0	0.15	4	0	0	3	;
	122	668	49500	0.86267	0	0.15	4	0	0	3	;
	123	669	49500	0.86267	0	0.15	4	0	0	3	;
	124	670	49500	0.86267	0	0.15	4	0	0	3	;
	125	671	49500	0.86267	0	0.15	4	0	0	3	;
	126	672	49500	0.86267	0	0.15	4	0	0	3	;
	127	673	49500	0.86267	0	0.15	4	0	0	3	;
	128	674	49500	0.86267	0	0.15	4	0	0	3	;
	129	675	49500	0.86267	0	0.15	4	0	0	3	;
	130	676	49500	0.86267	0	0.15	4	0	0	3	;
	131	677	49500	0.86267	0	0.15	4	0	0	3	;
	132	678	49500	0.86267	0	0.15	4	0	0	3	;
	133	679	49500	0.86267	0	0.15	4	0	0	3	;
	134	680	49500	0.86267	0	0.15	4	0	0	3	;
	135	681	49500	0.86267	0	0.15	4	0	0	3	;
	136	682	49500	0.86267	0	0.15	4	0	0	3	;
	137	683	49500	0.86267	0	0.15	4	0	0	3	;
	138	684	49500	0.86267	0	0.15	4	0	0	3	;
	139	685	49500	0.86267	0	0.15	4	0	0	3	;
	140	686	49500	0.86267	0	0.15	4	0	0	3	;
	141	687	49500	0.86267	0	0.15	4	0	0	3	;
	142	688	49500	0.86267	0	0.15	4	0	0	3	;
	143	689	49500	0.86267	0	0.15	4	0	0	3	;
	144	690	49500	0.86267	0	0.15	4	0	0	3	;
	145	691	49500	0.86267	0	0.15	4	0	0	3	;
	146	692	49500	0.86267	0	0.15	4	0	0	3	;
	147	693	49500	0.86267	0	0.15	4	0	0	3	;
	148	694	49500	0.86267	0	0.15	4	0	0	3	;
	149	695	49500	0.86267	0	0.15	4	0	0	3	;
	150	696	49500	0.86267	0	0.15	4	0	0	3	;
	151	697	49500	0.86267	0	0.15	4	0	0	3	;
	152	698	49500	0.86267	0	0.15	4	0	0	3	;
	153	699	49500	0.86267	0	0.15	4	0	0	3	;
	154	700	49500	0.86267	0	0.15	4	0	0	3	;
	155	701	49500	0.86267	0	0.15	4	0	0	3	;
	156	702	49500	0.86267	0	0.15	4	0	0	3	;
	157	703	49500	0.86267	0	0.15	4	0	0	3	;
	158	704	49500	0.86267	0	0.15	4	0	0	3	;
	159	705	49500	0.86267	0	0.15	4	0	0	3	;
	160	706	49500	0.86267	0	0.15	4	0	0	3	;
	161	707	49500	0.86267	0	0.15	4	0	0	3	;
	162	708	49500	0.86267	0	0.15	4	0	0	3	;
	163	709	49500	0.86267	0	0.15	4	0	0	3	;
	164	710	49500	0.86267	0	0.15	4	0	0	3	;
	165	711	49500	0.86267	0	0.15	4	0	0	3	;
	166	712	49500	0.86267	0	0.15	4	0	0	3	;
	167	713	49500	0.86267	0	0.15	4	0	0	3	;
	168	714	49500	0.86267	0	0.15	4	0	0	3	;
	169	715	49500	0.86267	0	0.15	4	0	0	3	;
	170	716	49500	0.86267	0	0.15	4	0	0	3	;
	171	717	49500	0.86267	0	0.15	4	0	0	3	;
	172	718	49500	0.86267	0	0.15	4	0	0	3	;
	173	719	49500	0.86267	0	0.15	4	0	0	3	;
	174	720	49500	0.86267	0	0.15	4	0	0	3	;
	175	721	49500	0.86267	0	0.15	4	0	0	3	;
	176	722	49500	0.86267	0	0.15	4	0	0	3	;
	177	723	49500	0.86267	0	0.15	4	0	0	3	;
	178	724	49500	0.86267	0	0.15	4	0	0	3	;
	179	725	49500	0.86267	0	0.15	4	0	0	3	;
	180	726	49500	0.86267	0	0.15	4	0	0	3	;
	181	727	49500	0.86267	0	0.15	4	0	0	3	;
	182	728	49500	0.86267	0	0.15	4	0	0	3	;
	183	729	49500	0.86267	0	0.15	4	0	0	3	;
	184	730	49500	0.86267	0	0.15	4	0	0	3	;
	185	731	49500	0.86267	0	0.15	4	0	0	3	;
	186	732	49500	0.86267	0	0.15	4	0	0	3	;
	187	733	49500	0.86267	0	0.15	4	0	0	3	;
	188	734	49500	0.86267	0	0.15	4	0	0	3	;
	189	735	49500	0.86267	0	0.15	4	0	0	3	;
	190	736	49500	0.86267	0	0.15	4	0	0	3	;
	191	737	49500	0.86267	0	0.15	4	0	0	3	;
	192	738	49500	0.86267	0	0.15	4	0	0	3	;
	193	739	49500	0.86267	0	0.15	4	0	0	3	;
	194	740	49500	0.86267	0	0.15	4	0	0	3	;
	195	741	49500	0.86267	0	0.15	4	0	0	3	;
	196	742	49500	0.86267	0	0.15	4	0	0	3	;
	197	743	49500	0.86267	0	0.15	4	0	0	3	;
	198	744	49500	0.86267	0	0.15	4	0	0	3	;
	199	745	49500	0.86267	0	0.15	4	0	0	3	;
	200	746	49500	0.86267	0	0.15	4	0	0	3	;
	201	747	49500	0.86267	0	0.15	4	0	0	3	;
	202	748	49500	0.86267	0	0.15	4	0	0	3	;
	203	749	49500	0.86267	0	0.15	4	0	0	3	;
	204	750	49500	0.86267	0	0.15	4	0	0	3	;
	205	751	49500	0.86267	0	0.15	4	0	0	3	;
	206	752	49500	0.86267	0	0.15	4	0	0	3	;
	207	753	49500	0.86267	0	0.15	4	0	0	3	;
	208	754	49500	0.86267	0	0.15	4	0	0	3	;
	209	755	49500	0.86267	0	0.15	4	0	0	3	;
	210	756	49500	0.86267	0	0.15	4	0	0	3	;
	211	757	49500	0.86267	0	0.15	4	0	0	3	;
	212	758	49500	0.86267	0	0.15	4	0	0	3	;
	213	759	49500	0.86267	0	0.15	4	0	0	3	;
	214	760	49500	0.86267	0	0.15	4	0	0	3	;
	215	761	49500	0.86267	0	0.15	4	0	0	3	;
	216	762	49500	0.86267	0	0.15	4	0	0	3	;
	217	763	49500	0.86267	0	0.15	4	0	0	3	;
	218	764	49500	0.86267	0	0.15	4	0	0	3	;
	219	765	49500	0.86267	0	0.15	4	0	0	3	;
	220	766	49500	0.86267	0	0.15	4	0	0	3	;
	221	767	49500	0.86267	0	0.15	4	0	0	3	;
	222	768	49500	0.86267	0	0.15	4	0	0	3	;
	223	769	49500	0.86267	0	0.15	4	0	0	3	;
	224	770	49500	0.86267	0	0.15	4	0	0	3	;
	225	771	49500	0.86267	0	0.15	4	0	0	3	;
	226	772	49500	0.86267	0	0.15	4	0	0	3	;
	227	773	49500	0.86267	0	0.15	4	0	0	3	;
	228	774	49500	0.86267	0	0.15	4	0	0	3	;
	229	775	49500	0.86267	0	0.15	4	0	0	3	;
	230	776	49500	0.86267	0	0.15	4	0	0	3	;
	231	777	49500	0.86267	0	0.15	4	0	0	3	;
	232	778	49500	0.86267	0	0.15	4	0	0	3	;
	233	779	49500	0.86267	0	0.15	4	0	0	3	;
	234	780	49500	0.86267	0	0.15	4	0	0	3	;
	235	781	49500	0.86267	0	0.15	4	0	0	3	;
	236	782	49500	0.86267	0	0.15	4	0	0	3	;
	237	783	49500	0.86267	0	0.15	4	0	0	3	;
	238	784	49500	0.86267	0	0.15	4	0	0	3	;
	239	785	49500	0.86267	0	0.15	4	0	0	3	;
	240	786	49500	0.86267	0	0.15	4	0	0	3	;
	241	787	49500	0.86267	0	0.15	4	0	0	3	;
	242	788	49500	0.86267	0	0.15	4	0	0	3	;
	243	789	49500	0.86267	0	0.15	4	0	0	3	;
	244	790	49500	0.86267	0	0.15	4	0	0	3	;
	245	791	49500	0.86267	0	0.15	4	0	0	3	;
	246	792	49500	0.86267	0	0.15	4	0	0	3	;
	247	793	49500	0.86267	0	0.15	4	0	0	3	;
	248	794	49500	0.86267	0	0.15	4	0	0	3	;
	249	795	49500	0.86267	0	0.15	4	0	0	3	;
	250	796	49500	0.86267	0	0.15	4	0	0	3	;
	251	797	49500	0.86267	0	0.15	4	0	0	3	;
	252	798	49500	0.86267	0	0.15	4	0	0	3	;
	253	799	49500	0.86267	0	0.15	4	0	0	3	;
	254	800	49500	0.86267	0	0.15	4	0	0	3	;
	255	801	49500	0.86267	0	0.15	4	0	0	3	;
	256	802	49500	0.86267	0	0.15	4	0	0	3	;
	257	803	49500	0.86267	0	0.15	4	0	0	3	;
	258	804	49500	0.86267	0	0.15	4	0	0	3	;
	259	805	49500	0.86267	0	0.15	4	0	0	3	;
	260	806	49500	0.86267	0	0.15	4	0	0	3	;
	261	807	49500	0.86267	0	0.15	4	0	0	3	;
	262	808	49500	0.86267	0	0.15	4	0	0	3	;
	263	809	49500	0.86267	0	0.15	4	0	0	3	;
	264	810	49500	0.86267	0	0.15	4	0	0	3	;
	265	811	49500	0.86267	0	0.15	4	0	0	3	;
	266	812	49500	0.86267	0	0.15	4	0	0	3	;
	267	813	49500	0.86267	0	0.15	4	0	0	3	;
	268	814	49500	0.86267	0	0.15	4	0	0	3	;
	269	815	49500	0.86267	0	0.15	4	0	0	3	;
	270	816	49500	0.86267	0	0.15	4	0	0	3	;
	271	817	49500	0.86267	0	0.15	4	0	0	3	;
	272	818	49500	0.86267	0	0.15	4	0	0	3	;
	273	819	49500	0.86267	0	0.15	4	0	0	3	;
	274	820	49500	0.86267	0	0.15	4	0	0	3	;
	275	821	49500	0.86267	0	0.15	4	0	0	3	;
	276	822	49500	0.86267	0	0.15	4	0	0	3	;
	277	823	49500	0.86267	0	0.15	4	0	0	3	;
	278	824	49500	0.86267	0	0.15	4	0	0	3	;
	279	825	49500	0.86267	0	0.15	4	0	0	3	;
	280	826	49500	0.86267	0	0.15	4	0	0	3	;
	281	827	49500	0.86267	0	0.15	4	0	0	3	;
	282	828	49500	0.86267	0	0.15	4	0	0	3	;
	283	829	49500	0.86267	0	0.15	4	0	0	3	;
	284	830	49500	0.86267	0	0.15	4	0	0	3	;
	285	831	49500	0.86267	0	0.15	4	0	0	3	;
	286	832	49500	0.86267	0	0.15	4	0	0	3	;
	287	833	49500	0.86267	0	0.15	4	0	0	3	;
	288	834	49500	0.86267	0	0.15	4	0	0	3	;
	289	835	49500	0.86267	0	0.15	4	0	0	3	;
	290	836	49500	0.86267	0	0.15	4	0	0	3	;
	291	837	49500	0.86267	0	0.15	4	0	0	3	;
	292	838	49500	0.86267	0	0.15	4	0	0	3	;
	293	839	49500	0.86267	0	0.15	4	0	0	3	;
	294	840	49500	0.86267	0	0.15	4	0	0	3	;
	295	841	49500	0.86267	0	0.15	4	0	0	3	;
	296	842	49500	0.86267	0	0.15	4	0	0	3	;
	297	843	49500	0.86267	0	0.15	4	0	0	3	;
	298	844	49500	0.86267	0	0.15	4	0	0	3	;
	299	845	49500	0.86267	0	0.15	4	0	0	3	;
	300	846	49500	0.86267	0	0.15	4	0	0	3	;
	301	847	49500	0.86267	0	0.15	4	0	0	3	;
	302	848	49500	0.86267	0	0.15	4	0	0	3	;
	303	849	49500	0.86267	0	0.15	4	0	0	3	;
	304	850	49500	0.86267	0	0.15	4	0	0	3	;
	305	851	49500	0.86267	0	0.15	4	0	0	3	;
	306	852	49500	0.86267	0	0.15	4	0	0	3	;
	307	853	49500	0.86267	0	0.15	4	0	0	3	;
	308	854	49500	0.86267	0	0.15	4	0	0	3	;
	309	855	49500	0.86267	0	0.15	4	0	0	3	;
	310	856	49500	0.86267	0	0.15	4	0	0	3	;
	311	857	49500	0.86267	0	0.15	4	0	0	3	;
	312	858	49500	0.86267	0	0.15	4	0	0	3	;
	313	859	49500	0.86267	0	0.15	4	0	0	3	;
	314	860	49500	0.86267	0	0.15	4	0	0	3	;
	315	861	49500	0.86267	0	0.15	4	0	0	3	;
	316	862	49500	0.86267	0	0.15	4	0	0	3	;
	317	863	49500	0.86267	0	0.15	4	0	0	3	;
	318	864	49500	0.86267	0	0.15	4	0	0	3	;
	319	865	49500	0.86267	0	0.15	4	0	0	3	;
	320	866	49500	0.86267	0	0.15	4	0	0	3	;
	321	867	49500	0.86267	0	0.15	4	0	0	3	;
	322	868	49500	0.86267	0	0.15	4	0	0	3	;
	323	869	49500	0.86267	0	0.15	4	0	0	3	;
	324	870	49500	0.86267	0	0.15	4	0	0	3	;
	325	871	49500	0.86267	0	0.15	4	0	0	3	;
	326	872	49500	0.86267	0	0.15	4	0	0	3	;
	327	873	49500	0.86267	0	0.15	4	0	0	3	;
	328	874	49500	0.86267	0	0.15	4	0	0	3	;
	329	875	49500	0.86267	0	0.15	4	0	0	3	;
	330	876	49500	0.86267	0	0.15	4	0	0	3	;
	331	877	49500	0.86267	0	0.15	4	0	0	3	;
	332	878	49500	0.86267	0	0.15	4	0	0	3	;
	333	879	49500	0.86267	0	0.15	4	0	0	3	;
	334	880	49500	0.86267	0	0.15	4	0	0	3	;
	335	881	49500	0.86267	0	0.15	4	0	0	3	;
	336	882	49500	0.86267	0	0.15	4	0	0	3	;
	337	883	49500	0.86267	0	0.15	4	0	0	3	;
	338	884	49500	0.86267	0	0.15	4	0	0	3	;
	339	885	49500	0.86267	0	0.15	4	0	0	3	;
	340	886	49500	0.86267	0	0.15	4	0	0	3	;
	341	887	49500	0.86267	0	0.15	4	0	0	3	;
	342	888	49500	0.86267	0	0.15	4	0	0	3	;
	343	889	49500	0.86267	0	0.15	4	0	0	3	;
	344	890	49500	0.86267	0	0.15	4	0	0	3	;
	345	891	49500	0.86267	0	0.15	4	0	0	3	;
	346	892	49500	0.86267	0	0.15	4	0	0	3	;
	347	893	49500	0.86267	0	0.15	4	0	0	3	;
	348	894	49500	0.86267	0	0.15	4	0	0	3	;
	349	895	49500	0.86267	0	0.15	4	0	0	3	;
	350	896	49500	0.86267	0	0.15	4	0	0	3	;
	351	897	49500	0.86267	0	0.15	4	0	0	3	;
	352	898	49500	0.86267	0	0.15	4	0	0	3	;
	353	899	49500	0.86267	0	0.15	4	0	0	3	;
	354	900	49500	0.86267	0	0.15	4	0	0	3	;
	355	901	49500	0.86267	0	0.15	4	0	0	3	;
	356	902	49500	0.86267	0	0.15	4	0	0	3	;
	357	903	49500	0.86267	0	0.15	4	0	0	3	;
	358	904	49500	0.86267	0	0.15	4	0	0	3	;
	359	905	49500	0.86267	0	0.15	4	0	0	3	;
	360	906	49500	0.86267	0	0.15	4	0	0	3	;
	361	907	49500	0.86267	0	0.15	4	0	0	3	;
	362	908	49500	0.86267	0	0.15	4	0	0	3	;
	363	909	49500	0.86267	0	0.15	4	0	0	3	;
	364	910	49500	0.86267	0	0.15	4	0	0	3	;
	365	911	49500	0.86267	0	0.15	4	0	0	3	;
	366	912	49500	0.86267	0	0.15	4	0	0	3	;
	367	913	49500	0.86267	0	0.15	4	0	0	3	;
	368	914	49500	0.86267	0	0.15	4	0	0	3	;
	369	915	49500	0.86267	0	0.15	4	0	0	3	;
	370	916	49500	0.86267	0	0.15	4	0	0	3	;
	371	917	49500	0.86267	0	0.15	4	0	0	3	;
	372	918	49500	0.86267	0	0.15	4	0	0	3	;
	373	919	49500	0.86267	0	0.15	4	0	0	3	;
	374	920	49500	0.86267	0	0.15	4	0	0	3	;
	375	921	49500	0.86267	0	0.15	4	0	0	3	;
	376	922	49500	0.86267	0	0.15	4	0	0	3	;
	377	923	49500	0.86267	0	0.15	4	0	0	3	;
	378	924	49500	0.86267	0	0.15	4	0	0	3	;
	379	925	49500	0.86267	0	0.15	4	0	0	3	;
	380	926	49500	0.86267	0	0.15	4	0	0	3	;
	381	927	49500	0.86267	0	0.15	4	0	0	3	;
	382	928	49500	0.86267	0	0.15	4	0	0	3	;
	383	929	49500	0.86267	0	0.15	4	0	0	3	;
	384	930	49500	0.86267	0	0.15	4	0	0	3	;
	385	931	49500	0.86267	0	0.15	4	0	0	3	;
	386	932	49500	0.86267	0	0.15	4	0	0	3	;
	387	933	49500	0.86267	0	0.15	4	0	0	3	;
	388	390	3500	12.0468	11.09	0.15	4	0	0	2	;
	388	391	3500	6.35718	5.98	0.15	4	0	0	2	;
	388	708	2226.32	1.81366	2.9	0.15	4	0	0	1	;
	388	802	2000.97	4.42618	4.78	0.15	4	0	0	1	;
	389	390	2615.7	4.70056	4.34	0.15	4	0	0	2	;
	389	801	2919.81	7.50969	9.58	0.15	4	0	0	1	;
	389	914	2521.73	3.3019	3.96	0.15	4	0	0	1	;
	390	388	3500	12.0468	11.09	0.15	4	0	0	2	;
	390	389	2058.41	4.70056	4.34	0.15	4	0	0	2	;
	390	925	3500	7.06021	6.93	0.15	4	0	0	2	;
	391	388	3500	6.35718	5.98	0.15	4	0	0	2	;
	391	392	3533.33	4.5587	4.22	0.15	4	0	0	2	;
	391	709	3000	1.26933	0.53	0.15	4	0	0	1	;
	391	715	3000.25	4.71637	6.36	0.15	4	0	0	1	;
	392	391	3512.48	4.5587	4.22	0.15	4	0	0	2	;
	392	393	4011.68	2.70059	2.55	0.15	4	0	0	2	;
	392	713	1222.87	1.675	1.05	0.15	4	0	0	1	;
	392	717	1421.6	1.60466	2.98	0.15	4	0	0	1	;
	393	392	3500	2.70059	2.55	0.15	4	0	0	2	;
	393	394	5984.81	3.1116	3.42	0.15	4	0	0	2	;
	393	712	3652.41	2.70953	2.62	0.15	4	0	0	1	;
	393	716	3500	0.61304	1.87	0.15	4	0	0	1	;
	394	393	5000	3.1116	3.42	0.15	4	0	0	2	;
	394	395	5403.61	2.25782	2.42	0.15	4	0	0	2	;
	394	584	1361.07	4.77245	4.97	0.15	4	0	0	1	;
	394	601	873.127	0.56239	1.75	0.15	4	0	0	1	;
	395	394	5000	2.25782	2.42	0.15	4	0	0	2	;
	395	396	6489.69	3.35722	3.65	0.15	4	0	0	2	;
	395	584	3837.13	3.87386	3.88	0.15	4	0	0	1	;
	395	600	3500	0.82969	1.36	0.15	4	0	0	1	;
	396	395	5000	3.35722	3.65	0.15	4	0	0	2	;
	396	397	6489.69	1.95295	2.11	0.15	4	0	0	2	;
	397	396	5000	1.95295	2.11	0.15	4	0	0	2	;
	397	398	5632.78	2.17728	2.36	0.15	4	0	0	2	;
	397	588	3396.98	2.501	3.02	0.15	4	0	0	1	;
	397	604	4129.87	1.10476	1.28	0.15	4	0	0	1	;
	398	397	5000	2.17728	2.36	0.15	4	0	0	2	;
	398	399	5010.85	0.62803	0.72	0.15	4	0	0	2	;
	398	400	6500	1.95581	2.11	0.15	4	0	0	2	;
	398	403	8455.13	2.806	3.06	0.15	4	0	0	2	;
	399	398	5000	0.62803	0.72	0.15	4	0	0	2	;
	399	537	6191.93	3.93438	4.28	0.15	4	0	0	2	;
	399	604	7004.08	1.69926	3.32	0.15	4	0	0	1	;
	399	609	7201	1.364	0.88	0.15	4	0	0	1	;
	400	398	6500	1.95581	2.11	0.15	4	0	0	2	;
	400	401	5000	3.45553	4.09	0.15	4	0	0	2	;
	400	587	513.82	1.00973	0.88	0.15	4	0	0	1	;
	400	609	774.963	2.50769	6.72	0.15	4	0	0	1	;
	401	400	5170.36	3.45553	4.09	0.15	4	0	0	2	;
	401	402	5000	1.5004	1.69	0.15	4	0	0	2	;
	401	585	6000	1.00047	1.7	0.15	4	0	0	1	;
	401	590	6694.91	2.22043	1.81	0.15	4	0	0	1	;
	402	401	5000	1.5004	1.69	0.15	4	0	0	2	;
	403	398	8000	2.806	3.06	0.15	4	0	0	2	;
	403	404	6689.76	3.00452	3.26	0.15	4	0	0	2	;
	403	606	1506.74	1.20311	2.84	0.15	4	0	0	1	;
	403	611	4317.94	1.92899	2.07	0.15	4	0	0	1	;
	404	403	6695.77	3.00452	3.26	0.15	4	0	0	2	;
	404	405	6663.87	0.91703	1.05	0.15	4	0	0	2	;
	404	675	5500	1.54319	3.14	0.15	4	0	0	1	;
	404	680	9119.69	1.61045	1.27	0.15	4	0	0	1	;
	405	404	6393.09	0.91703	1.05	0.15	4	0	0	2	;
	405	406	5000	2.18666	2.53	0.15	4	0	0	2	;
	405	488	5550.92	0.95285	1.01	0.15	4	0	0	2	;
	406	405	5000	2.18666	2.53	0.15	4	0	0	2	;
	406	407	5027.94	3.05061	3.31	0.15	4	0	0	2	;
	406	677	3000	0.82067	2	0.15	4	0	0	1	;
	406	682	3146.7	2.20446	2.45	0.15	4	0	0	1	;
	407	406	5384.1	3.05061	3.31	0.15	4	0	0	2	;
	407	408	5279.69	2.94384	3.25	0.15	4	0	0	2	;
	407	687	6500	0.82067	1.71	0.15	4	0	0	1	;
	407	692	7859.83	2.45596	2.47	0.15	4	0	0	1	;
	408	407	5264.31	2.94384	3.25	0.15	4	0	0	2	;
	408	409	5000	1.91447	2.17	0.15	4	0	0	2	;
	408	689	2000	1.04948	2.19	0.15	4	0	0	1	;
	408	694	4944.54	2.10339	2.11	0.15	4	0	0	1	;
	409	408	5388.05	1.91447	2.17	0.15	4	0	0	2	;
	409	410	5113.61	3.58034	3.93	0.15	4	0	0	2	;
	409	538	5034.63	1.40829	1.47	0.15	4	0	0	2	;
	409	539	7053.7	2.55473	2.86	0.15	4	0	0	2	;
	410	409	6355.59	3.58034	3.93	0.15	4	0	0	2	;
	410	411	3670.97	2.99149	2.72	0.15	4	0	0	2	;
	410	690	2283.94	2.81196	2.9	0.15	4	0	0	1	;
	410	700	2077.85	0.63686	1.09	0.15	4	0	0	1	;
	411	410	4462.42	2.99149	2.72	0.15	4	0	0	2	;
	411	412	3655.47	2.93815	2.73	0.15	4	0	0	2	;
	411	685	8109.27	2.91909	3.04	0.15	4	0	0	1	;
	411	695	6666.12	0.63686	1.04	0.15	4	0	0	1	;
	412	411	4144.95	2.93815	2.73	0.15	4	0	0	2	;
	412	413	3655.44	2.87283	2.61	0.15	4	0	0	2	;
	413	412	4144.95	2.87283	2.61	0.15	4	0	0	2	;
	413	414	3500	2.80865	2.62	0.15	4	0	0	2	;
	413	730	4481.2	3.17024	3.35	0.15	4	0	0	1	;
	413	734	4097.03	0.62208	0.65	0.15	4	0	0	1	;
	414	413	3515.34	2.80865	2.62	0.15	4	0	0	2	;
	414	415	3552.32	4.37375	4.1	0.15	4	0	0	2	;
	414	731	3500	3.20061	3.29	0.15	4	0	0	1	;
	414	735	4499.8	0.63686	0.54	0.15	4	0	0	1	;
	415	414	3562.86	4.37375	4.1	0.15	4	0	0	2	;
	415	416	3500	6.15496	5.67	0.15	4	0	0	2	;
	415	727	3935.11	4.24465	4.8	0.15	4	0	0	1	;
	415	733	3912.98	1.75633	3.01	0.15	4	0	0	1	;
	416	415	3536.11	6.15496	5.67	0.15	4	0	0	2	;
	416	417	3500	5.59407	5.15	0.15	4	0	0	2	;
	416	726	2000	2.04509	1.54	0.15	4	0	0	1	;
	416	732	2000	3.95137	5.28	0.15	4	0	0	1	;
	417	416	3500	5.59407	5.15	0.15	4	0	0	2	;
	417	732	3500	8.19718	9.84	0.15	4	0	0	1	;
	417	913	3735.97	3.12711	3.45	0.15	4	0	0	1	;
	417	926	3500	6.52016	6.29	0.15	4	0	0	2	;
	418	419	5000	5.50658	5.27	0.15	4	0	0	2	;
	418	921	2000	2.33798	3.86	0.15	4	0	0	1	;
	418	922	2000	4.25297	4.77	0.15	4	0	0	1	;
	418	923	5000	10.3917	8.98	0.15	4	0	0	2	;
	419	418	5000	5.50658	5.27	0.15	4	0	0	2	;
	419	420	5261.02	4.81398	4.47	0.15	4	0	0	2	;
	419	739	1956.6	3.41273	5.07	0.15	4	0	0	1	;
	419	743	1500	1.62768	1.44	0.15	4	0	0	1	;
	420	419	5000	4.81398	4.47	0.15	4	0	0	2	;
	420	421	5451.19	2.97089	3.29	0.15	4	0	0	2	;
	420	751	3539.19	2.501	2.57	0.15	4	0	0	1	;
	420	752	3000	0.90683	1.68	0.15	4	0	0	1	;
	421	420	5000	2.97089	3.29	0.15	4	0	0	2	;
	421	422	6200.98	3.25194	3.53	0.15	4	0	0	2	;
	421	753	2286.71	1.47413	0.94	0.15	4	0	0	1	;
	421	754	2000	1.83508	2.86	0.15	4	0	0	1	;
	422	421	5000	3.25194	3.53	0.15	4	0	0	2	;
	422	423	5699.82	2.80865	3.11	0.15	4	0	0	2	;
	422	762	1333.93	0.61	0.87	0.15	4	0	0	1	;
	422	766	3212.71	3.05061	3.61	0.15	4	0	0	1	;
	423	422	5000	2.80865	3.11	0.15	4	0	0	2	;
	423	424	6295.8	3.09902	3.43	0.15	4	0	0	2	;
	423	764	1199.51	0.69551	0.6	0.15	4	0	0	1	;
	423	767	1833.52	3.49621	4.08	0.15	4	0	0	1	;
	424	423	5000	3.09902	3.43	0.15	4	0	0	2	;
	424	425	6249.8	3.06764	3.31	0.15	4	0	0	2	;
	424	773	1070.96	0.682	1.3	0.15	4	0	0	1	;
	424	777	1469.34	3.32995	3.72	0.15	4	0	0	1	;
	425	424	5000	3.06764	3.31	0.15	4	0	0	2	;
	425	426	6380.09	1.53594	1.71	0.15	4	0	0	2	;
	425	775	2234.3	1.47539	2.62	0.15	4	0	0	1	;
	425	779	2430.39	1.73609	1.48	0.15	4	0	0	1	;
	426	425	5000	1.53594	1.71	0.15	4	0	0	2	;
	426	427	3640.88	0.9548	1.11	0.15	4	0	0	2	;
	426	441	6806.18	4.40258	4.82	0.15	4	0	0	2	;
	427	426	4412.52	0.9548	1.11	0.15	4	0	0	2	;
	427	428	3516.08	3.24219	3.5	0.15	4	0	0	2	;
	427	594	7000	0.7446	1.43	0.15	4	0	0	1	;
	427	779	7000	2.57432	2.65	0.15	4	0	0	1	;
	428	427	3500	3.24219	3.5	0.15	4	0	0	2	;
	428	429	3500	0.682	0.78	0.15	4	0	0	2	;
	428	431	5003.15	0.9548	1.04	0.15	4	0	0	2	;
	429	428	3500	0.682	0.78	0.15	4	0	0	2	;
	429	430	3500	0.60078	0.63	0.15	4	0	0	2	;
	429	593	6500	1.00047	2.39	0.15	4	0	0	1	;
	429	778	6500	2.39692	2.77	0.15	4	0	0	1	;
	430	429	3500	0.60078	0.63	0.15	4	0	0	2	;
	431	428	5000	0.9548	1.04	0.15	4	0	0	2	;
	431	432	5254.61	3.22089	3.52	0.15	4	0	0	2	;
	431	593	4000	0.682	1.27	0.15	4	0	0	1	;
	431	597	4140.24	2.42854	2.91	0.15	4	0	0	1	;
	432	431	5000	3.22089	3.52	0.15	4	0	0	2	;
	432	433	5006.01	2.37978	2.62	0.15	4	0	0	2	;
	432	595	4500	1.66609	3.16	0.15	4	0	0	1	;
	432	599	4684.79	1.56355	1.33	0.15	4	0	0	1	;
	433	432	5000	2.37978	2.62	0.15	4	0	0	2	;
	433	434	5000	2.01208	2.35	0.15	4	0	0	2	;
	433	616	9500	2.79936	3.4	0.15	4	0	0	1	;
	433	617	9500	0.76433	1.5	0.15	4	0	0	1	;
	434	433	5000	2.01208	2.35	0.15	4	0	0	2	;
	434	435	5028.97	2.60592	3.07	0.15	4	0	0	2	;
	434	618	9000	3.17024	4.12	0.15	4	0	0	1	;
	434	619	9000	0.63686	0.65	0.15	4	0	0	1	;
	435	434	5000	2.60592	3.07	0.15	4	0	0	2	;
	435	436	5248.03	1.78575	1.92	0.15	4	0	0	2	;
	435	552	4500	1.30973	0.89	0.15	4	0	0	1	;
	435	554	6083.23	1.76057	3.93	0.15	4	0	0	1	;
	436	435	5122.35	1.78575	1.92	0.15	4	0	0	2	;
	436	437	6209.55	2.75582	3.08	0.15	4	0	0	2	;
	436	496	9000	0.95285	1.02	0.15	4	0	0	2	;
	437	436	5000	2.75582	3.08	0.15	4	0	0	2	;
	437	438	6262.27	3.79967	4.14	0.15	4	0	0	2	;
	437	554	4228.12	1.037	0.62	0.15	4	0	0	1	;
	437	556	5216.34	3.32156	7.18	0.15	4	0	0	1	;
	438	437	5316.96	3.79967	4.14	0.15	4	0	0	2	;
	438	439	5356.69	2.196	2.4	0.15	4	0	0	2	;
	438	535	6866.96	7.09097	8.17	0.15	4	0	0	2	;
	438	536	5562.9	1.85925	2.11	0.15	4	0	0	2	;
	438	540	6817.92	1.50659	1.68	0.15	4	0	0	2	;
	439	438	5493.61	2.196	2.4	0.15	4	0	0	2	;
	439	440	5193.35	2.318	2.53	0.15	4	0	0	2	;
	439	614	7180.56	2.33798	2.72	0.15	4	0	0	1	;
	439	615	6545.51	0.7764	1.94	0.15	4	0	0	1	;
	440	439	6138.88	2.318	2.53	0.15	4	0	0	2	;
	440	441	5000	2.44076	2.63	0.15	4	0	0	2	;
	440	612	2961.22	2.33798	2.64	0.15	4	0	0	1	;
	440	613	2797.04	0.86267	1.88	0.15	4	0	0	1	;
	441	426	5000	4.40258	4.82	0.15	4	0	0	2	;
	441	440	6478.82	2.44076	2.63	0.15	4	0	0	2	;
	441	591	6541.69	1.87122	3.19	0.15	4	0	0	1	;
	441	596	8208.1	1.30973	0.72	0.15	4	0	0	1	;
	442	443	3500	3.9287	3.59	0.15	4	0	0	2	;
	442	898	2071.53	6.25094	6.49	0.15	4	0	0	1	;
	442	899	503.762	1.5444	2.78	0.15	4	0	0	1	;
	442	929	3500	32.8818	6.31	0.15	4	0	0	2	;
	443	442	3500	3.9287	3.59	0.15	4	0	0	2	;
	443	444	3500	4.52881	4.45	0.15	4	0	0	2	;
	443	897	500.629	1.00973	1.3	0.15	4	0	0	1	;
	443	898	907.43	3.82164	3.98	0.15	4	0	0	1	;
	444	443	3500	4.52881	4.45	0.15	4	0	0	2	;
	444	445	3500	5.42934	5	0.15	4	0	0	2	;
	445	444	3500	5.42934	5	0.15	4	0	0	2	;
	445	446	3500	6.81154	6.27	0.15	4	0	0	2	;
	445	885	1000	4.73644	6.37	0.15	4	0	0	1	;
	445	886	1110.53	1.64248	1.05	0.15	4	0	0	1	;
	446	445	3500	6.81154	6.27	0.15	4	0	0	2	;
	446	447	3500	6.28774	5.78	0.15	4	0	0	2	;
	446	858	8500	1.41882	2.41	0.15	4	0	0	1	;
	446	859	8500	4.74469	5.21	0.15	4	0	0	1	;
	447	446	3500	6.28774	5.78	0.15	4	0	0	2	;
	447	448	3500	4.3224	3.98	0.15	4	0	0	2	;
	447	848	4000	3.81335	5.59	0.15	4	0	0	1	;
	447	849	4000	2.16185	1.87	0.15	4	0	0	1	;
	448	447	3500	4.3224	3.98	0.15	4	0	0	2	;
	448	449	5000	2.989	3.28	0.15	4	0	0	2	;
	448	664	3500	2.75245	2.78	0.15	4	0	0	1	;
	448	665	3500	0.65699	1.17	0.15	4	0	0	1	;
	449	448	5000	2.989	3.28	0.15	4	0	0	2	;
	449	450	5000	1.83	2	0.15	4	0	0	2	;
	449	662	2000	2.63362	2.91	0.15	4	0	0	1	;
	449	663	2000	0.682	1.41	0.15	4	0	0	1	;
	450	449	5000	1.83	2	0.15	4	0	0	2	;
	450	451	5000	1.30973	1.44	0.15	4	0	0	2	;
	450	453	5000	4.05593	4.56	0.15	4	0	0	2	;
	450	508	5000	3.51955	3.8	0.15	4	0	0	2	;
	451	450	5000	1.30973	1.44	0.15	4	0	0	2	;
	451	452	5000	2.00095	2.18	0.15	4	0	0	2	;
	451	654	5000	2.00652	1.81	0.15	4	0	0	1	;
	451	655	5000	1.2276	2.48	0.15	4	0	0	1	;
	452	451	5000	2.00095	2.18	0.15	4	0	0	2	;
	452	525	5000	2.15668	2.32	0.15	4	0	0	2	;
	452	652	7000	2.16185	2.17	0.15	4	0	0	1	;
	452	654	7000	1.13467	2.28	0.15	4	0	0	1	;
	453	450	5000	4.05593	4.56	0.15	4	0	0	2	;
	453	454	3500	9.13311	10.27	0.15	4	0	0	2	;
	453	650	500	2.62016	2.82	0.15	4	0	0	1	;
	453	841	500	0.7446	1.48	0.15	4	0	0	1	;
	454	453	3668.25	9.13311	10.27	0.15	4	0	0	2	;
	454	455	3500	2.99894	3.23	0.15	4	0	0	2	;
	454	838	3000	1.98695	1.93	0.15	4	0	0	1	;
	454	840	3000	1.20311	2.45	0.15	4	0	0	1	;
	455	454	3500.72	2.99894	3.23	0.15	4	0	0	2	;
	455	456	3500	2.92864	2.7	0.15	4	0	0	2	;
	455	833	3000	2.14543	2.7	0.15	4	0	0	1	;
	455	835	3000	1.18441	2.85	0.15	4	0	0	1	;
	456	455	3500	2.92864	2.7	0.15	4	0	0	2	;
	456	457	3500	3.18429	2.93	0.15	4	0	0	2	;
	456	834	5500	1.96908	2.01	0.15	4	0	0	1	;
	456	836	5500	1.13467	2.41	0.15	4	0	0	1	;
	457	456	3500	3.18429	2.93	0.15	4	0	0	2	;
	457	458	3500	1.58248	1.5	0.15	4	0	0	2	;
	457	829	1000	3.05061	3.65	0.15	4	0	0	1	;
	457	831	1000	0.682	0.72	0.15	4	0	0	1	;
	458	457	3500	1.58248	1.5	0.15	4	0	0	2	;
	458	459	5000	1.3708	1.43	0.15	4	0	0	2	;
	458	467	3500	5.6173	5.17	0.15	4	0	0	2	;
	458	468	3500	3.08879	2.91	0.15	4	0	0	2	;
	459	458	5000	1.3708	1.43	0.15	4	0	0	2	;
	459	460	3500	5.04681	4.66	0.15	4	0	0	2	;
	459	832	2000	1.27372	1.27	0.15	4	0	0	1	;
	459	845	2000	3.63808	7.72	0.15	4	0	0	1	;
	460	459	3500	5.04681	4.66	0.15	4	0	0	2	;
	460	461	3500	6.78445	6.3	0.15	4	0	0	2	;
	460	872	3500	4.80508	5.86	0.15	4	0	0	1	;
	460	875	3500	1.09969	2.21	0.15	4	0	0	1	;
	461	460	3500	6.78445	6.3	0.15	4	0	0	2	;
	461	462	3500	5.79725	5.39	0.15	4	0	0	2	;
	461	874	2000	2.42854	2.35	0.15	4	0	0	1	;
	461	877	2000	3.93675	5.87	0.15	4	0	0	1	;
	462	461	3500	5.79725	5.39	0.15	4	0	0	2	;
	462	873	1500	3.26108	3.45	0.15	4	0	0	1	;
	462	876	1500	2.74025	4.35	0.15	4	0	0	1	;
	462	927	3500	7.7268	7.78	0.15	4	0	0	2	;
	463	464	3500	4.16322	3.9	0.15	4	0	0	2	;
	463	928	3500	16.654	15.96	0.15	4	0	0	2	;
	464	463	3500	4.16322	3.9	0.15	4	0	0	2	;
	464	465	3500	7.80824	7.21	0.15	4	0	0	2	;
	464	883	2000	2.78804	3.92	0.15	4	0	0	1	;
	464	884	2000	3.36165	3.18	0.15	4	0	0	1	;
	465	464	3500	7.80824	7.21	0.15	4	0	0	2	;
	465	466	3500	6.00285	5.74	0.15	4	0	0	2	;
	465	862	3500	4.47426	4.5	0.15	4	0	0	1	;
	465	881	3500	1.54319	2.48	0.15	4	0	0	1	;
	466	465	3500	6.00285	5.74	0.15	4	0	0	2	;
	466	467	3500	5.7353	5.33	0.15	4	0	0	2	;
	466	855	5000	2.10339	1.67	0.15	4	0	0	1	;
	466	862	5000	3.97203	5.4	0.15	4	0	0	1	;
	467	458	3500	5.6173	5.17	0.15	4	0	0	2	;
	467	466	3500	5.7353	5.33	0.15	4	0	0	2	;
	467	845	2500	2.20446	2.09	0.15	4	0	0	1	;
	467	855	2500	3.79232	5.88	0.15	4	0	0	1	;
	468	458	3500	3.08879	2.91	0.15	4	0	0	2	;
	468	469	3500	3.18429	2.92	0.15	4	0	0	2	;
	468	829	2500	1.66609	1.33	0.15	4	0	0	1	;
	468	830	2500	1.50659	2.85	0.15	4	0	0	1	;
	469	468	3500	3.18429	2.92	0.15	4	0	0	2	;
	469	470	3500	2.94384	2.73	0.15	4	0	0	2	;
	469	819	3000	0.65982	0.34	0.15	4	0	0	1	;
	469	824	3000	3.54115	4.01	0.15	4	0	0	1	;
	470	469	3500.93	2.94384	2.73	0.15	4	0	0	2	;
	470	471	3538.02	4.14441	4.12	0.15	4	0	0	2	;
	470	817	1081.5	0.61304	0.74	0.15	4	0	0	1	;
	470	822	1000	3.19596	3.36	0.15	4	0	0	1	;
	471	470	3500	4.14441	4.12	0.15	4	0	0	2	;
	471	472	3506.72	3.17259	2.92	0.15	4	0	0	2	;
	471	815	3000	3.24219	3.84	0.15	4	0	0	1	;
	471	816	3000	0.65699	0.61	0.15	4	0	0	1	;
	472	471	3500	3.17259	2.92	0.15	4	0	0	2	;
	472	473	5935.85	1.5552	1.75	0.15	4	0	0	2	;
	472	813	3000	1.87122	1.39	0.15	4	0	0	1	;
	472	815	3000	1.4461	2.22	0.15	4	0	0	1	;
	473	472	5000	1.5552	1.75	0.15	4	0	0	2	;
	473	474	5338.32	2.98962	3.23	0.15	4	0	0	2	;
	473	475	5000	2.92355	3.17	0.15	4	0	0	2	;
	473	707	1961.83	3.85219	4.39	0.15	4	0	0	1	;
	473	813	1000	0.7446	1.44	0.15	4	0	0	1	;
	474	473	5000	2.98962	3.23	0.15	4	0	0	2	;
	474	538	5534.57	2.99149	3.32	0.15	4	0	0	2	;
	474	701	3558.45	0.82067	1.73	0.15	4	0	0	1	;
	474	706	4315.31	2.41317	2.45	0.15	4	0	0	1	;
	475	473	5000	2.92355	3.17	0.15	4	0	0	2	;
	475	476	5000	1.52866	1.68	0.15	4	0	0	2	;
	475	706	3527.7	2.51953	3.08	0.15	4	0	0	1	;
	475	707	3500	1.17811	1.74	0.15	4	0	0	1	;
	476	475	5000	1.52866	1.68	0.15	4	0	0	2	;