<NUMBER OF ZONES> 110
<NUMBER OF NODES> 1020
<FIRST THRU NODE> 1
<NUMBER OF LINKS> 2522
<END OF METADATA>

 ~from 	to	capacity	length	ftime(min)	B	power	speed(mpm)	toll	type

     1    111       0.1        0.833333        10000         0.15            4            1            0            0       ;
     1    112       0.1        0.833333        10000         0.15            4            1            0            0       ;
     1    113       0.1        0.833333        10000         0.15            4            1            0            0       ;
     1    114       0.1        0.833333        10000         0.15            4            1            0            0       ;
     1    115       0.1        0.833333        10000         0.15            4            1            0            0       ;
     1    116       0.1        0.833333        10000         0.15            4            1            0            0       ;
     1    117       0.1        0.833333        10000         0.15            4            1            0            0       ;
     1    118       0.1        0.833333        10000         0.15            4            1            0            0       ;
     1    119       0.1        0.833333        10000         0.15            4            1            0            0       ;
     1    120       0.1        0.833333        10000         0.15            4            1            0            0       ;
     1    121       0.1        0.833333        10000         0.15            4            1            0            0       ;
     1    122       0.1        0.833333        10000         0.15            4            1            0            0       ;
     1    123       0.1        0.833333        10000         0.15            4            1            0            0       ;
     1    124       0.1        0.833333        10000         0.15            4            1            0            0       ;
     1    125       0.1        0.833333        10000         0.15            4            1            0            0       ;
     1    126       0.1        0.833333        10000         0.15            4            1            0            0       ;
     1    127       0.1        0.833333        10000         0.15            4            1            0            0       ;
     1    128       0.1        0.833333        10000         0.15            4            1            0            0       ;
     1    129       0.1        0.833333        10000         0.15            4            1            0            0       ;
     1    130       0.1        0.833333        10000         0.15            4            1            0            0       ;
     1    131       0.1        0.833333        10000         0.15            4            1            0            0       ;
     1    132       0.1        0.833333        10000         0.15            4            1            0            0       ;
     1    133       0.1        0.833333        10000         0.15            4            1            0            0       ;
     1    134       0.1        0.833333        10000         0.15            4            1            0            0       ;
     1    135       0.1        0.833333        10000         0.15            4            1            0            0       ;
     1    136       0.1        0.833333        10000         0.15            4            1            0            0       ;
     1    137       0.1        0.833333        10000         0.15            4            1            0            0       ;
     1    138       0.1        0.833333        10000         0.15            4            1            0            0       ;
     1    139       0.1        0.833333        10000         0.15            4            1            0            0       ;
     1    140       0.1        0.833333        10000         0.15            4            1            0            0       ;
     1    141       0.1        0.833333        10000         0.15            4            1            0            0       ;
     1    142       0.1        0.833333        10000         0.15            4            1            0            0       ;
     1    143       0.1        0.833333        10000         0.15            4            1            0            0       ;
     1    144       0.1        0.833333        10000         0.15            4            1            0            0       ;
     1    145       0.1        0.833333        10000         0.15            4            1            0            0       ;
     1    146       0.1        0.833333        10000         0.15            4            1            0            0       ;
     1    147       0.1        0.833333        10000         0.15            4            1            0            0       ;
     1    148       0.1        0.833333        10000         0.15            4            1            0            0       ;
     1    149       0.1        0.833333        10000         0.15            4            1            0            0       ;
     1    150       0.1        0.833333        10000         0.15            4            1            0            0       ;
     1    151       0.1        0.833333        10000         0.15            4            1            0            0       ;
     1    152       0.1        0.833333        10000         0.15            4            1            0            0       ;
     1    153       0.1        0.833333        10000         0.15            4            1            0            0       ;
     1    154       0.1        0.833333        10000         0.15            4            1            0            0       ;
     1    155       0.1        0.833333        10000         0.15            4            1            0            0       ;
     1    156       0.1        0.833333        10000         0.15            4            1            0            0       ;
     1    157       0.1        0.833333        10000         0.15            4            1            0            0       ;
     1    158       0.1        0.833333        10000         0.15            4            1            0            0       ;
     1    159       0.1        0.833333        10000         0.15            4            1            0            0       ;
     1    160       0.1        0.833333        10000         0.15            4            1            0            0       ;
     1    161       0.1        0.833333        10000         0.15            4            1            0            0       ;
     1    162       0.1        0.833333        10000         0.15            4            1            0            0       ;
     1    163       0.1        0.833333        10000         0.15            4            1            0            0       ;
     1    164       0.1        0.833333        10000         0.15            4            1            0            0       ;
     1    165       0.1        0.833333        10000         0.15            4            1            0            0       ;
     1    166       0.1        0.833333        10000         0.15            4            1            0            0       ;
     1    167       0.1        0.833333        10000         0.15            4            1            0            0       ;
     1    168       0.1        0.833333        10000         0.15            4            1            0            0       ;
     1    169       0.1        0.833333        10000         0.15            4            1            0            0       ;
     1    170       0.1        0.833333        10000         0.15            4            1            0            0       ;
     1    171       0.1        0.833333        10000         0.15            4            1            0            0       ;
     1    172       0.1        0.833333        10000         0.15            4            1            0            0       ;
     1    173       0.1        0.833333        10000         0.15            4            1            0            0       ;
     1    174       0.1        0.833333        10000         0.15            4            1            0            0       ;
     1    175       0.1        0.833333        10000         0.15            4            1            0            0       ;
     1    176       0.1        0.833333        10000         0.15            4            1            0            0       ;
     1    177       0.1        0.833333        10000         0.15            4            1            0            0       ;
     1    178       0.1        0.833333        10000         0.15            4            1            0            0       ;
     1    179       0.1        0.833333        10000         0.15            4            1            0            0       ;
     1    180       0.1        0.833333        10000         0.15            4            1            0            0       ;
     1    181       0.1        0.833333        10000         0.15            4            1            0            0       ;
     1    182       0.1        0.833333        10000         0.15            4            1            0            0       ;
     1    183       0.1        0.833333        10000         0.15            4            1            0            0       ;
     1    184       0.1        0.833333        10000         0.15            4            1            0            0       ;
     1    185       0.1        0.833333        10000         0.15            4            1            0            0       ;
     1    186       0.1        0.833333        10000         0.15            4            1            0            0       ;
     1    187       0.1        0.833333        10000         0.15            4            1            0            0       ;
     1    188       0.1        0.833333        10000         0.15            4            1            0            0       ;
     1    189       0.1        0.833333        10000         0.15            4            1            0            0       ;
     1    190       0.1        0.833333        10000         0.15            4            1            0            0       ;
     1    191       0.1        0.833333        10000         0.15            4            1            0            0       ;
     1    192       0.1        0.833333        10000         0.15            4            1            0            0       ;
     1    193       0.1        0.833333        10000         0.15            4            1            0            0       ;
     1    194       0.1        0.833333        10000         0.15            4            1            0            0       ;
     1    195       0.1        0.833333        10000         0.15            4            1            0            0       ;
     1    196       0.1        0.833333        10000         0.15            4            1            0            0       ;
     1    197       0.1        0.833333        10000         0.15            4            1            0            0       ;
     1    198       0.1        0.833333        10000         0.15            4            1            0            0       ;
     1    199       0.1        0.833333        10000         0.15            4            1            0            0       ;
     1    200       0.1        0.833333        10000         0.15            4            1            0            0       ;
     1    290       1e+015      1.08333      64.9998         0.15            4            1            0            0       ;
     1    307       1e+015      1.08333      64.9998         0.15            4            1            0            0       ;
     1    316       1e+015      1.08333      64.9998         0.15            4            1            0            0       ;
     2    301       1e+015      1.08333      64.9998         0.15            4            1            0            0       ;
     2    306       1e+015      1.08333      64.9998         0.15            4            1            0            0       ;
     3    298       1e+015          0.5           30         0.15            4            1            0            0       ;
     3    299       1e+015          0.5           30         0.15            4            1            0            0       ;
     3    310       1e+015      1.08333      64.9998         0.15            4            1            0            0       ;
     4    424       1e+015     0.833333           50         0.15            4            1            0            0       ;
     4    425       1e+015     0.833333           50         0.15            4            1            0            0       ;
     4    456       1e+015     0.833333           50         0.15            4            1            0            0       ;
     5    274       1e+015     0.666667           40         0.15            4            1            0            0       ;
     5    281       1e+015     0.666667           40         0.15            4            1            0            0       ;
     5    283       1e+015     0.666667           40         0.15            4            1            0            0       ;
     6    272       1e+015     0.666667           40         0.15            4            1            0            0       ;
     6    456       1e+015     0.666667           40         0.15            4            1            0            0       ;
     6    474       1e+015     0.666667           40         0.15            4            1            0            0       ;
     6    480       1e+015     0.666667           40         0.15            4            1            0            0       ;
     7    277       1e+015          0.5           30         0.15            4            1            0            0       ;
     8    205       1e+015     0.416667           25         0.15            4            1            0            0       ;
     8    206       1e+015     0.416667           25         0.15            4            1            0            0       ;
     8    214       1e+015     0.416667           25         0.15            4            1            0            0       ;
     9    206       1e+015     0.666667           40         0.15            4            1            0            0       ;
     9    207       1e+015     0.666667           40         0.15            4            1            0            0       ;
    10    210       1e+015     0.833333           50         0.15            4            1            0            0       ;
    10    217       1e+015     0.833333           50         0.15            4            1            0            0       ;
    10    222       1e+015     0.833333           50         0.15            4            1            0            0       ;
    11    208       1e+015     0.666667           40         0.15            4            1            0            0       ;
    11    211       1e+015     0.666667           40         0.15            4            1            0            0       ;
    11    224       1e+015     0.666667           40         0.15            4            1            0            0       ;
    12    244       1e+015     0.583333           35         0.15            4            1            0            0       ;
    13    228       1e+015     0.833333           50         0.15            4            1            0            0       ;
    13    533       1e+015     0.833333           50         0.15            4            1            0            0       ;
    13    538       1e+015     0.833333           50         0.15            4            1            0            0       ;
    14    601       1e+015            1           60         0.15            4            1            0            0       ;
    14    602       1e+015            1           60         0.15            4            1            0            0       ;
    15    597       1e+015     0.666667           40         0.15            4            1            0            0       ;
    15    608       1e+015     0.666667           40         0.15            4            1            0            0       ;
    15    621       1e+015     0.666667           40         0.15            4            1            0            0       ;
    16    914       1e+015     0.916667           55         0.15            4            1            0            0       ;
    16    937       1e+015     0.916667           55         0.15            4            1            0            0       ;
    16    938       1e+015     0.916667           55         0.15            4            1            0            0       ;
    16    946       1e+015     0.916667           55         0.15            4            1            0            0       ;
    17    617       1e+015     0.833333           50         0.15            4            1            0            0       ;
    17    919       1e+015     0.833333           50         0.15            4            1            0            0       ;
    17    931       1e+015     0.833333           50         0.15            4            1            0            0       ;
    18    916       1e+015         0.75           45         0.15            4            1            0            0       ;
    19    915       1e+015          0.5           30         0.15            4            1            0            0       ;
    19    943       1e+015          0.5           30         0.15            4            1            0            0       ;
    20    831       1e+015      1.16667      70.0002         0.15            4            1            0            0       ;
    21    823       1e+015      1.08333      64.9998         0.15            4            1            0            0       ;
    21    835       1e+015      1.08333      64.9998         0.15            4            1            0            0       ;
    21    836       1e+015      1.08333      64.9998         0.15            4            1            0            0       ;
    21    839       1e+015      1.08333      64.9998         0.15            4            1            0            0       ;
    22    827       1e+015      1.16667      70.0002         0.15            4            1            0            0       ;
    22    838       1e+015      1.16667      70.0002         0.15            4            1            0            0       ;
    22    855       1e+015      1.16667      70.0002         0.15            4            1            0            0       ;
    23    821       1e+015         1.25           75         0.15            4            1            0            0       ;
    23    841       1e+015         1.25           75         0.15            4            1            0            0       ;
    23    849       1e+015         1.25           75         0.15            4            1            0            0       ;
    24    322       1e+015     0.666667           40         0.15            4            1            0            0       ;
    24    844       1e+015     0.666667           40         0.15            4            1            0            0       ;
    24    851       1e+015     0.666667           40         0.15            4            1            0            0       ;
    25    317       1e+015     0.666667           40         0.15            4            1            0            0       ;
    25    333       1e+015     0.666667           40         0.15            4            1            0            0       ;
    25    824       1e+015     0.666667           40         0.15            4            1            0            0       ;
    25    832       1e+015     0.666667           40         0.15            4            1            0            0       ;
    26    328       1e+015     0.666667           40         0.15            4            1            0            0       ;
    26    339       1e+015     0.666667           40         0.15            4            1            0            0       ;
    26    825       1e+015     0.666667           40         0.15            4            1            0            0       ;
    27    325       1e+015         0.75           45         0.15            4            1            0            0       ;
    27    331       1e+015         0.75           45         0.15            4            1            0            0       ;
    28    286       1e+015     0.666667           40         0.15            4            1            0            0       ;
    28    340       1e+015     0.666667           40         0.15            4            1            0            0       ;
    29    366       1e+015     0.616667           37         0.15            4            1            0            0       ;
    29    405       1e+015     0.616667           37         0.15            4            1            0            0       ;
    29    448       1e+015     0.616667           37         0.15            4            1            0            0       ;
    29    779       1e+015     0.616667           37         0.15            4            1            0            0       ;
    30    287       1e+015     0.666667           40         0.15            4            1            0            0       ;
    30    347       1e+015     0.666667           40         0.15            4            1            0            0       ;
    30    355       1e+015     0.666667           40         0.15            4            1            0            0       ;
    30    356       1e+015     0.666667           40         0.15            4            1            0            0       ;
    31    255       1e+015      1.08333      64.9998         0.15            4            1            0            0       ;
    31    858       1e+015      1.08333      64.9998         0.15            4            1            0            0       ;
    31    961       1e+015      1.08333      64.9998         0.15            4            1            0            0       ;
    31    963       1e+015      1.08333      64.9998         0.15            4            1            0            0       ;
    32    870       1e+015     0.916667           55         0.15            4            1            0            0       ;
    32    962       1e+015     0.916667           55         0.15            4            1            0            0       ;
    32    964       1e+015     0.916667           55         0.15            4            1            0            0       ;
    32    967       1e+015     0.916667           55         0.15            4            1            0            0       ;
    33    758       1e+015         0.75           45         0.15            4            1            0            0       ;
    33    760       1e+015         0.75           45         0.15            4            1            0            0       ;
    33    869       1e+015         0.75           45         0.15            4            1            0            0       ;
    33    966       1e+015         0.75           45         0.15            4            1            0            0       ;
    34    763       1e+015     0.616667           37         0.15            4            1            0            0       ;
    34    764       1e+015     0.616667           37         0.15            4            1            0            0       ;
    34    767       1e+015     0.616667           37         0.15            4            1            0            0       ;
    34    788       1e+015     0.616667           37         0.15            4            1            0            0       ;
    34    796       1e+015     0.616667           37         0.15            4            1            0            0       ;
    35    349       1e+015          0.7           42         0.15            4            1            0            0       ;
    35    393       1e+015          0.7           42         0.15            4            1            0            0       ;
    35    458       1e+015          0.7           42         0.15            4            1            0            0       ;
    35    459       1e+015          0.7           42         0.15            4            1            0            0       ;
    35    803       1e+015          0.7           42         0.15            4            1            0            0       ;
    36    255       1e+015     0.783333           47         0.15            4            1            0            0       ;
    36    262       1e+015     0.783333           47         0.15            4            1            0            0       ;
    36    267       1e+015     0.783333           47         0.15            4            1            0            0       ;
    37    254       1e+015     0.833333           50         0.15            4            1            0            0       ;
    37    873       1e+015     0.833333           50         0.15            4            1            0            0       ;
    37    880       1e+015     0.833333           50         0.15            4            1            0            0       ;
    37    881       1e+015     0.833333           50         0.15            4            1            0            0       ;
    38    633       1e+015      1.08333      64.9998         0.15            4            1            0            0       ;
    38    883       1e+015      1.08333      64.9998         0.15            4            1            0            0       ;
    39    761       1e+015     0.916667           55         0.15            4            1            0            0       ;
    39    866       1e+015     0.916667           55         0.15            4            1            0            0       ;
    39    875       1e+015     0.916667           55         0.15            4            1            0            0       ;
    39    885       1e+015     0.916667           55         0.15            4            1            0            0       ;
    40    666       1e+015     0.666667           40         0.15            4            1            0            0       ;
    40    676       1e+015     0.666667           40         0.15            4            1            0            0       ;
    40    679       1e+015     0.666667           40         0.15            4            1            0            0       ;
    40    687       1e+015     0.666667           40         0.15            4            1            0            0       ;
    41    668       1e+015     0.583333           35         0.15            4            1            0            0       ;
    41    688       1e+015     0.583333           35         0.15            4            1            0            0       ;
    41    689       1e+015     0.583333           35         0.15            4            1            0            0       ;
    41    696       1e+015     0.583333           35         0.15            4            1            0            0       ;
    41    722       1e+015     0.583333           35         0.15            4            1            0            0       ;
    42    450       1e+015     0.666667           40         0.15            4            1            0            0       ;
    42    455       1e+015     0.666667           40         0.15            4            1            0            0       ;
    42    473       1e+015     0.666667           40         0.15            4            1            0            0       ;
    42    503       1e+015     0.666667           40         0.15            4            1            0            0       ;
    43    522       1e+015     0.666667           40         0.15            4            1            0            0       ;
    43    530       1e+015     0.666667           40         0.15            4            1            0            0       ;
    43    551       1e+015     0.666667           40         0.15            4            1            0            0       ;
    43    555       1e+015     0.666667           40         0.15            4            1            0            0       ;
    44    262       1e+015      1.08333      64.9998         0.15            4            1            0            0       ;
    44    263       1e+015      1.08333      64.9998         0.15            4            1            0            0       ;
    45    264       1e+015     0.666667           40         0.15            4            1            0            0       ;
    45    887       1e+015     0.666667           40         0.15            4            1            0            0       ;
    46    261       1e+015         0.75           45         0.15            4            1            0            0       ;
    46    890       1e+015         0.75           45         0.15            4            1            0            0       ;
    47    625       1e+015         0.75           45         0.15            4            1            0            0       ;
    47    646       1e+015         0.75           45         0.15            4            1            0            0       ;
    48    623       1e+015          0.5           30         0.15            4            1            0            0       ;
    48    652       1e+015          0.5           30         0.15            4            1            0            0       ;
    48    700       1e+015          0.5           30         0.15            4            1            0            0       ;
    49    655       1e+015     0.583333           35         0.15            4            1            0            0       ;